! DU_7_TrechoBT_391_MTQ_RMTQ1302
New "Line.SBT_8308597_F" bus1="BT4362871445307971MT02.1.2" bus2="BT4362569145309281MT02.1.2" linecode="1/0AN2BT1_2" length=0.03396733 units=km
New "Line.SBT_3547063_F" bus1="BT4294090645495276MT02.1.2.4" bus2="BT4294041745497549MT02.1.2.4" linecode="1/0AN2BT1/0AN1_3" length=0.02397075 units=km
New "Line.SBT_7406068_B" bus1="BT4391112945358468MT02.1.2.4" bus2="BT4391112645358463MT02.1.2.4" linecode="1/0AN2BT1/0AN1_3" length=0.00005980 units=km
New "Line.SBT_271678602_F" bus1="BT4271378445197201MT02.1.2.4" bus2="BT4271490145200521MT02.1.2.4" linecode="2X7070AXNI2BT2X7071_3" length=0.03611490 units=km
New "Line.SBT_139286398_F" bus1="BT42857933453195MT02.1.2.4" bus2="BT4285551545324082MT02.1.2.4" linecode="1/0AN2BT4ANA1_3" length=0.05341508 units=km
New "Line.SBT_3681601_F" bus1="BT4364133245293369MT02.1.2" bus2="BT436377964529289MT02.1.2" linecode="4AN2BT1_2" length=0.03678917 units=km
New "Line.SBT_31792888_F" bus1="BT4346840245403588MT02.2.3.4" bus2="BT4347054445401037MT02.2.3.4" linecode="1/0AN2BT1/0AN1_3" length=0.03434261 units=km
New "Line.SBT_373481657_B" bus1="BT4287038445260021MT02.1.2.4" bus2="BT4286845245256928MT02.1.2.4" linecode="1/0AN2BT4ANA1_3" length=0.03759851 units=km
New "Line.SBT_8185960_F" bus1="BT4394239145360041MT02.2.3.4" bus2="BT4394554245361175MT02.2.3.4" linecode="2X2525AX2BT2X2521_3" length=0.03452613 units=km
New "Line.SBT_296467051_F" bus1="BT4285576945297217MT02.1.2.4" bus2="BT4285918945299338MT02.1.2.4" linecode="4ANA2BT4ANA1_3" length=0.04149053 units=km
New "Line.SBT_8206758_F" bus1="BT4367864145310271MT02.1.2" bus2="BT4368130745312153MT02.1.2" linecode="4AN2BT1_2" length=0.03364565 units=km
New "Line.SBT_296467017_F" bus1="BT428525214527323MT02.1.2.4" bus2="BT4285193145277841MT02.1.2.4" linecode="1/0AN2BT1/0AN1_3" length=0.04792707 units=km
New "Line.SBT_216434190_F" bus1="BT4375356545429674MT02.1.2.4" bus2="BT4375466245426356MT02.1.2.4" linecode="2X7070AX2BT2X7071_3" length=0.03602933 units=km
New "Line.SBT_31611739_F" bus1="BT4391112945358468MT02.1.2.4" bus2="BT4391265145360608MT02.1.2.4" linecode="1/0AN2BT1/0AN1_3" length=0.02707406 units=km
New "Line.SBT_373407537_B" bus1="BT4296027645342723MT02.1.2.4" bus2="BT4295647345347827MT02.1.2.4" linecode="4ANA2BT4ANA1_3" length=0.06562315 units=km
New "Line.SBT_271842659_F" bus1="BT4270708545189469MT02.1.2.4" bus2="BT4270693145190287MT02.1.2.4" linecode="2X7070AXNI2BT2X7071_3" length=0.00858204 units=km
New "Line.SBT_140114477_F" bus1="BT4283459445475156MT02.1.2.4" bus2="BT4283705245476528MT02.1.2.4" linecode="2X7070AX2BT2X7071_3" length=0.02902265 units=km
New "Line.SBT_4441493_F" bus1="BT4333609845833786MT02.2.3.4" bus2="BT4333535945829661MT02.2.3.4" linecode="4ANA2BT4ANA1_3" length=0.04320612 units=km
New "Line.SBT_8298598_F" bus1="BT4334110445860781MT02.2.3.4" bus2="BT4334185545863043MT02.2.3.4" linecode="4ANA2BT4ANA1_3" length=0.02457285 units=km
New "Line.SBT_8241280_F" bus1="BT439126745360632MT02.1.2.4" bus2="BT4391463145362957MT02.1.2.4" linecode="1/0AN2BT1/0AN1_3" length=0.03135890 units=km
New "Line.SBT_3572968_F" bus1="BT4295162945353253MT02.1.2.4" bus2="BT4294966945350817MT02.1.2.4" linecode="4ANA2BT4ANA1_3" length=0.03223525 units=km
New "Line.SBT_373368880_B" bus1="BT4299086845487069MT02.1.2.4" bus2="BT4299204945490642MT02.1.2.4" linecode="1/0AN2BT4AN1_3" length=0.03879756 units=km
New "Line.SBT_39922910_F" bus1="BT4370309745334821MT02.1.2.4" bus2="BT4370312445334405MT02.1.2.4" linecode="1/0AN2BT4AN1_3" length=0.00429824 units=km
New "Line.SBT_4780990_F" bus1="BT437115545276246MT02.2.3.4" bus2="BT4370981645279274MT02.2.3.4" linecode="1/0AN2BT1/0AN1_3" length=0.03597468 units=km
New "Line.SBT_7484608_F" bus1="BT4278764945155276MT02.1.2.4" bus2="BT4278989545157592MT02.1.2.4" linecode="1/0AN2BT1/0AN1_3" length=0.03326212 units=km
New "Line.SBT_228404112_F" bus1="BT4395221645368334MT02.1.2" bus2="BT439528514536854MT02.1.2" linecode="4AN2BT1_2" length=0.00688296 units=km
New "Line.SBT_203961208_F" bus1="BT4297821845293064MT02.1.2.4" bus2="BT4297834445290595MT02.1.2.4" linecode="1/0AN2BT1/0AN1_3" length=0.02548838 units=km
New "Line.SBT_30584138_F" bus1="BT427505054589108MT02.1.2.4" bus2="BT4275231245887264MT02.1.2.4" linecode="4ANA2BT4ANA1_3" length=0.04353088 units=km
New "Line.SBT_386281511_B" bus1="BT4270693145190287MT02.1.2.4" bus2="BT4270667145190075MT02.1.2.4" linecode="2X7070AXNI2BT2X7071_3" length=0.00345900 units=km
New "Line.SBT_140168113_F" bus1="BT429951345662735MT02.1.2.4" bus2="BT4300008445662149MT02.1.2.4" linecode="4ANA2BT4ANA1_3" length=0.05143143 units=km
New "Line.SBT_4663527_F" bus1="BT436377964529289MT02.1.2" bus2="BT4363852445291107MT02.1.2" linecode="4AN2BT1_2" length=0.01985603 units=km
New "Line.SBT_204049879_F" bus1="BT4291686145479618MT02.1.2.4" bus2="BT429151645478327MT02.1.2.4" linecode="1/0AN2BT1/0AN1_3" length=0.02201597 units=km
New "Line.SBT_7744977_F" bus1="BT4368130745312153MT02.1.2" bus2="BT4368489845314946MT02.1.2" linecode="4AN2BT1_2" length=0.04690328 units=km
New "Line.SBT_301713481_F" bus1="BT43887074535597MT02.1.2.4" bus2="BT43887045359156MT02.1.2.4" linecode="1/0AN2BT1/0AN1_3" length=0.03285591 units=km
New "Line.SBT_8123708_F" bus1="BT4365248545299888MT02.1.2.4" bus2="BT4365637945300687MT02.1.2.4" linecode="4AN2BT3/0AN1_3" length=0.04098328 units=km
New "Line.SBT_236227403_F" bus1="BT4335302645845089MT02.2.3.4" bus2="BT4335653145844984MT02.2.3.4" linecode="4ANA2BT4ANA1_3" length=0.03615305 units=km
New "Line.SBT_3424054_F" bus1="BT4295162945353253MT02.1.2.4" bus2="BT4295202545353201MT02.1.2.4" linecode="4ANA2BT4ANA1_3" length=0.00411781 units=km
New "Line.SBT_3948867_F" bus1="BT4393639645363287MT02.1.2" bus2="BT4393636545363383MT02.1.2" linecode="2X4AC2BT1_2" length=0.00104028 units=km
New "Line.SBT_236227404_F" bus1="BT4335653145844984MT02.2.3.4" bus2="BT4335657245844989MT02.2.3.4" linecode="4ANA2BT4ANA1_3" length=0.00042580 units=km
New "Line.SBT_4753984_F" bus1="BT4294090645495276MT02.1.2.4" bus2="BT4294342345492122MT02.1.2.4" linecode="2X7070AX2BT2X7071_3" length=0.04160291 units=km
New "Line.SBT_7875304_F" bus1="BT4368799545317644MT02.1.2" bus2="BT4369169845320747MT02.1.2" linecode="4AN2BT1_2" length=0.04980967 units=km
New "Line.SBT_296467016_F" bus1="BT4285410445268881MT02.1.2.4" bus2="BT428525214527323MT02.1.2.4" linecode="1/0AN2BT1/0AN1_3" length=0.04771571 units=km
New "Line.SBT_8186917_F" bus1="BT4335334645866476MT02.2.3.4" bus2="BT4335644945867777MT02.2.3.4" linecode="4ANA2BT4ANA1_3" length=0.03469006 units=km
New "Line.SBT_373374675_F" bus1="BT4298797645478212MT02.1.2.4" bus2="BT4298587345475567MT02.1.2.4" linecode="1/0AN2BT4ANA1_3" length=0.03483852 units=km
New "Line.SBT_31611771_F" bus1="BT439199245361089MT02.1.2.4" bus2="BT43919924536107MT02.1.2.4" linecode="1/0AN2BT1/0AN1_3" length=0.00019589 units=km
New "Line.SBT_373481541_F" bus1="BT4287514645263335MT02.1.2.4" bus2="BT428730345262312MT02.1.2.4" linecode="1/0AN2BT4ANA1_3" length=0.02423159 units=km
New "Line.SBT_31611729_B" bus1="BT4390283245354094MT02.1.2.4" bus2="BT4389929545353235MT02.1.2.4" linecode="1/0AN2BT1/0AN1_3" length=0.03752634 units=km
New "Line.SBT_7451741_F" bus1="BT4370038645328262MT02.1.2.4" bus2="BT4369840845326054MT02.1.2.4" linecode="4AN2BT4AN1_3" length=0.03056296 units=km
New "Line.SBT_4200967_F" bus1="BT4247554845823588MT02.1.2.4" bus2="BT4247670645828375MT02.1.2.4" linecode="4ANA2BT4ANA1_3" length=0.05077778 units=km
New "Line.SBT_4717535_F" bus1="BT4283456245475135MT02.1.2.4" bus2="BT4283459445475156MT02.1.2.4" linecode="1/0AN2BT4ANA1_3" length=0.00039487 units=km
New "Line.SBT_373481700_F" bus1="BT4286845245256928MT02.1.2" bus2="BT4286665745254742MT02.1.2" linecode="4ANA2BT1_2" length=0.02916184 units=km
New "Line.SBT_140591945_F" bus1="BT429169294547967MT02.1.2.4" bus2="BT4291686145479618MT02.1.2.4" linecode="1/0AN2BT1/0AN1_3" length=0.00088254 units=km
New "Line.SBT_301713461_F" bus1="BT4388755445347961MT02.1.2.4" bus2="BT4388823245350609MT02.1.2.4" linecode="2X7070AXNI2BT2X7071_3" length=0.02818135 units=km
New "Line.SBT_373407490_F" bus1="BT4296701345346193MT02.1.2.4" bus2="BT4296370145341992MT02.1.2.4" linecode="4ANA2BT4ANA1_3" length=0.05515438 units=km
New "Line.SBT_301713480_F" bus1="BT438875884535268MT02.1.2.4" bus2="BT43887074535597MT02.1.2.4" linecode="1/0AN2BT1/0AN1_3" length=0.03433745 units=km
New "Line.SBT_31772151_F" bus1="BT4291512745478302MT02.1.2.4" bus2="BT42913454547692MT02.1.2.4" linecode="1/0AN2BT1/0AN1_3" length=0.02240466 units=km
New "Line.SBT_30584137_F" bus1="BT4274871845894646MT02.1.2.4" bus2="BT427505054589108MT02.1.2.4" linecode="4ANA2BT4ANA1_3" length=0.04112350 units=km
New "Line.SBT_7689399_F" bus1="BT4370779545282189MT02.2.3.4" bus2="BT4370618645285191MT02.2.3.4" linecode="1/0AN2BT1/0AN1_3" length=0.03511586 units=km
New "Line.SBT_4511840_F" bus1="BT429198294547699MT02.1.2.4" bus2="BT4292043945473327MT02.1.2.4" linecode="1/0AN2BT1/0AN1_3" length=0.03828515 units=km
New "Line.SBT_4094072_F" bus1="BT4294965245487246MT02.1.2.4" bus2="BT4295315345484346MT02.1.2.4" linecode="1/0AN2BT1/0AN1_3" length=0.04687029 units=km
New "Line.SBT_3349167_B" bus1="BT429169294547967MT02.1.2.4" bus2="BT4291699445479711MT02.1.2.4" linecode="1/0AN2BT1/0AN1_3" length=0.00079284 units=km
New "Line.SBT_3328570_F" bus1="BT4392476545359683MT02.1.2.4" bus2="BT4392522845357224MT02.1.2.4" linecode="2X2525AX2BT2X2521_3" length=0.02579768 units=km
New "Line.SBT_4533901_F" bus1="BT4291705845479434MT02.1.2.4" bus2="BT429169294547967MT02.1.2.4" linecode="1/0AN2BT1/0AN1_3" length=0.00277339 units=km
New "Line.SBT_362021664_B" bus1="BT4274194745090489MT02.1.2.4" bus2="BT427408245086018MT02.1.2.4" linecode="3X7070AX3BT3X7071_3" length=0.04753838 units=km
New "Line.SBT_3703692_F" bus1="BT4291705845479434MT02.1.2.4" bus2="BT429198294547699MT02.1.2.4" linecode="1/0AN2BT1/0AN1_3" length=0.03809339 units=km
New "Line.SBT_296467005_F" bus1="BT4285410445268881MT02.1.2.4" bus2="BT428565945265105MT02.1.2.4" linecode="1/0AN2BT1/0AN1_3" length=0.04661048 units=km
New "Line.SBT_373481574_F" bus1="BT428730345262312MT02.1.2.4" bus2="BT4287038445260021MT02.1.2.4" linecode="1/0AN2BT4ANA1_3" length=0.03608500 units=km
New "Line.SBT_3963807_F" bus1="BT4363466245292388MT02.1.2" bus2="BT4363662345289122MT02.1.2" linecode="4AN2BT1_2" length=0.03927594 units=km
New "Line.SBT_8597954_F" bus1="BT4334385945862581MT02.2.3.4" bus2="BT4334595145863478MT02.2.3.4" linecode="4ANA2BT4ANA1_3" length=0.02346762 units=km
New "Line.SBT_7933283_F" bus1="BT437047154532569MT02.2.3.4" bus2="BT4370443445328331MT02.2.3.4" linecode="1/0AN2BT1/0AN1_3" length=0.02738233 units=km
New "Line.SBT_4031839_F" bus1="BT4285918445261513MT02.1.2.4" bus2="BT4286175545258343MT02.1.2.4" linecode="1/0AN2BT1/0AN1_3" length=0.04208026 units=km
New "Line.SBT_373477530_F" bus1="BT4289172145267513MT02.1.2.4" bus2="BT4289287845267781MT02.1.2.4" linecode="1/0AN2BT4ANA1_3" length=0.01224416 units=km
New "Line.SBT_203877512_F" bus1="BT4370021745329153MT02.1.2.4" bus2="BT4370038645328262MT02.1.2.4" linecode="2X1010AX2BT2X1011_3" length=0.00935014 units=km
New "Line.SBT_4676193_F" bus1="BT4394330745365527MT02.1.2" bus2="BT4394815245367015MT02.1.2" linecode="4AN2BT1_2" length=0.05225417 units=km
New "Line.SBT_296467006_F" bus1="BT428565945265105MT02.1.2.4" bus2="BT4285918445261513MT02.1.2.4" linecode="1/0AN2BT1/0AN1_3" length=0.04568052 units=km
New "Line.SBT_30966326_F" bus1="BT4293886145501539MT02.1.2.4" bus2="BT429354174550257MT02.1.2.4" linecode="1/0AN2BT1/0AN1_3" length=0.03706445 units=km
New "Line.SBT_4388538_F" bus1="BT4282965545467339MT02.1.2.4" bus2="BT4282772445462717MT02.1.2.4" linecode="1/0AN2BT4AN1_3" length=0.05164485 units=km
New "Line.SBT_4720680_F" bus1="BT4282752645473744MT02.1.2.4" bus2="BT4283045145474132MT02.1.2.4" linecode="1/0AN2BT4ANA1_3" length=0.03042069 units=km
New "Line.SBT_30205428_B" bus1="BT4274832245899329MT02.1.2.4" bus2="BT4274871845894646MT02.1.2.4" linecode="4ANA2BT4ANA1_3" length=0.04845391 units=km
New "Line.SBT_7988782_F" bus1="BT4370877345277653MT02.2.3" bus2="BT4370658645279437MT02.2.3" linecode="1/0AN2BT1_2" length=0.02909791 units=km
New "Line.SBT_373374617_F" bus1="BT4299034845483634MT02.1.2.4" bus2="BT4298941545480833MT02.1.2.4" linecode="4ANA2BT4ANA1_3" length=0.03043821 units=km
New "Line.SBT_4052003_F" bus1="BT4248116845825687MT02.1.2.4" bus2="BT4248508245826083MT02.1.2.4" linecode="4ANA2BT4ANA1_3" length=0.04055954 units=km
New "Line.SBT_39922911_F" bus1="BT4370312445334405MT02.1.2.4" bus2="BT437034194533144MT02.1.2.4" linecode="1/0AN2BT4AN1_3" length=0.03071968 units=km
New "Line.SBT_361993632_B" bus1="BT427478745098762MT02.1.2.4" bus2="BT42744664509494MT02.1.2.4" linecode="3X7070AX2BT3X7071_3" length=0.05145927 units=km
New "Line.SBT_31656894_F" bus1="BT4297392345292862MT02.1.2.4" bus2="BT4296998145292892MT02.1.2.4" linecode="1/0AN2BT1/0AN1_3" length=0.04064305 units=km
New "Line.SBT_7506352_F" bus1="BT4391463145362957MT02.1.2.4" bus2="BT4391466545362977MT02.1.2.4" linecode="1/0AN2BT1/0AN1_3" length=0.00040621 units=km
New "Line.SBT_4539960_F" bus1="BT424659334582206MT02.1.2.4" bus2="BT4246225945825439MT02.1.2.4" linecode="4ANA2BT4ANA1_3" length=0.05146340 units=km
New "Line.SBT_296467026_F" bus1="BT4285193145277841MT02.1.2.4" bus2="BT4285413945281464MT02.1.2.4" linecode="1/0AN2BT1/0AN1_3" length=0.04374327 units=km
New "Line.SBT_341457699_B" bus1="BT4345463345425946MT02.2.3" bus2="BT4345340645428457MT02.2.3" linecode="2X1010AX2BT1_2" length=0.02881439 units=km
New "Line.SBT_4638641_F" bus1="BT4388245945346047MT02.1.2" bus2="BT4388755445347961MT02.1.2" linecode="1/0AN2BT1_2" length=0.05611321 units=km
New "Line.SBT_216439453_F" bus1="BT437547974543221MT02.1.2.4" bus2="BT4375356545429674MT02.1.2.4" linecode="2X7070AX2BT2X7071_3" length=0.02906801 units=km
New "Line.SBT_4320521_F" bus1="BT4370981645279274MT02.2.3.4" bus2="BT4370779545282189MT02.2.3.4" linecode="1/0AN2BT1/0AN1_3" length=0.03657060 units=km
New "Line.SBT_8596665_F" bus1="BT4387832445345094MT02.1.2" bus2="BT438734845343687MT02.1.2" linecode="2X1010AX2BT1_2" length=0.05200570 units=km
New "Line.SBT_143271434_F" bus1="BT4389929545353235MT02.1.2.4" bus2="BT438957514535211MT02.1.2.4" linecode="1/0AN2BT1/0AN1_3" length=0.03833567 units=km
New "Line.SBT_296467040_F" bus1="BT428548874528365MT02.1.2.4" bus2="BT4285550445286277MT02.1.2.4" linecode="4AN2BT4AN1_3" length=0.02782154 units=km
New "Line.SBT_3974048_F" bus1="BT427949414516312MT02.1.2.4" bus2="BT4279691945165389MT02.1.2.4" linecode="2X7070AX2BT2X7071_3" length=0.03103413 units=km
New "Line.SBT_39922937_F" bus1="BT4370162545354804MT02.1.2.4" bus2="BT4370162145354827MT02.1.2.4" linecode="1/0AC2BT4AN1_3" length=0.00024022 units=km
New "Line.SBT_20848218_F" bus1="BT42857933453195MT02.1.2.4" bus2="BT4286002445316088MT02.1.2.4" linecode="1/0AN2BT4ANA1_3" length=0.04125856 units=km
New "Line.SBT_373479312_B" bus1="BT428848945265861MT02.1.2.4" bus2="BT4288778745266602MT02.1.2.4" linecode="1/0AN2BT4ANA1_3" length=0.03082999 units=km
New "Line.SBT_7753798_B" bus1="BT4390884445356536MT02.1.2.4" bus2="BT4390883445356531MT02.1.2.4" linecode="1/0AN2BT1/0AN1_3" length=0.00011547 units=km
New "Line.SBT_31611725_B" bus1="BT4390592145355119MT02.1.2.4" bus2="BT4390591645355117MT02.1.2.4" linecode="1/0AN2BT1/0AN1_3" length=0.00005567 units=km
New "Line.SBT_8190777_F" bus1="BT4306006945395075MT02.1.2.4" bus2="BT4306226545392052MT02.1.2.4" linecode="4ANA2BT4ANA1_3" length=0.03852228 units=km
New "Line.SBT_140168127_F" bus1="BT4300475845662315MT02.1.2.4" bus2="BT4300952245663282MT02.1.2.4" linecode="4ANA2BT4ANA1_3" length=0.05011897 units=km
New "Line.SBT_7689400_F" bus1="BT4370618645285191MT02.2.3.4" bus2="BT4370596145288183MT02.2.3.4" linecode="1/0AN2BT1/0AN1_3" length=0.03093412 units=km
New "Line.SBT_139271815_F" bus1="BT4302660245411828MT02.1.2.4" bus2="BT430245744541412MT02.1.2.4" linecode="4ANA2BT4ANA1_3" length=0.03155272 units=km
New "Line.SBT_143266210_F" bus1="BT4388540345371664MT02.1.2.4" bus2="BT4388497645374795MT02.1.2.4" linecode="3X7070AX3BT3X7071_3" length=0.03257960 units=km
New "Line.SBT_8421037_F" bus1="BT4368541245328292MT02.1.2.4" bus2="BT436816245328092MT02.1.2.4" linecode="1/0AN2BT3/0AN1_3" length=0.03915016 units=km
New "Line.SBT_293898350_F" bus1="BT4367112545305792MT02.1.2" bus2="BT4367104745305966MT02.1.2" linecode="2X4AC2BT1_2" length=0.00196612 units=km
New "Line.SBT_110042357_F" bus1="BT4370351745320276MT02.2.3.4" bus2="BT4370364345322259MT02.2.3.4" linecode="1/0AN2BT1/0AN1_3" length=0.02048597 units=km
New "Line.SBT_4533902_F" bus1="BT429169294547967MT02.1.2.4" bus2="BT4291535945482553MT02.1.2.4" linecode="1/0AN2BT1/0AN1_3" length=0.03384567 units=km
New "Line.SBT_7769267_F" bus1="BT4392013745362937MT02.1.2.4" bus2="BT439199245361089MT02.1.2.4" linecode="1/0AN2BT1/0AN1_3" length=0.01918382 units=km
New "Line.SBT_3326440_F" bus1="BT4362390945296691MT02.1.2.4" bus2="BT4361901545296091MT02.1.2.4" linecode="1/0AN2BT3/0AN1_3" length=0.05083449 units=km
New "Line.SBT_7340720_F" bus1="BT4305297245401394MT02.1.2.4" bus2="BT430570014539951MT02.1.2.4" linecode="4ANA2BT4ANA1_3" length=0.04585579 units=km
New "Line.SBT_8597953_F" bus1="BT4334185545863043MT02.2.3.4" bus2="BT4334385945862581MT02.2.3.4" linecode="4ANA2BT4ANA1_3" length=0.02120355 units=km
New "Line.SBT_4410038_F" bus1="BT4333674945837477MT02.2.3.4" bus2="BT4333609845833786MT02.2.3.4" linecode="4ANA2BT4ANA1_3" length=0.03864188 units=km
New "Line.SBT_8421036_F" bus1="BT4368921245328592MT02.1.2.4" bus2="BT4368541245328292MT02.1.2.4" linecode="1/0AN2BT3/0AN1_3" length=0.03929966 units=km
New "Line.SBT_271685888_F" bus1="BT4270935645192255MT02.1.2.4" bus2="BT4271199745193851MT02.1.2.4" linecode="2X7070AXNI2BT2X7071_3" length=0.03181460 units=km
New "Line.SBT_4509772_F" bus1="BT4389269845349388MT02.1.2.4" bus2="BT4389789645350987MT02.1.2.4" linecode="1/0AN2BT3/0AN1_3" length=0.05606990 units=km
New "Line.SBT_8228727_F" bus1="BT4393866745364083MT02.1.2" bus2="BT4394330745365527MT02.1.2" linecode="4AN2BT1_2" length=0.05010145 units=km
New "Line.SBT_31611772_F" bus1="BT43919924536107MT02.1.2.4" bus2="BT4391757645360185MT02.1.2.4" linecode="1/0AN2BT1/0AN1_3" length=0.02583170 units=km
New "Line.SBT_8186916_F" bus1="BT433494545864777MT02.2.3.4" bus2="BT4335334645866476MT02.2.3.4" linecode="4ANA2BT4ANA1_3" length=0.04382059 units=km
New "Line.SBT_7976299_F" bus1="BT437042474531023MT02.2.3.4" bus2="BT4370445245307123MT02.2.3.4" linecode="1/0AN2BT1/0AN1_3" length=0.03210328 units=km
New "Line.SBT_373481799_F" bus1="BT4286665745254742MT02.1.2.4" bus2="BT4286390445251551MT02.1.2.4" linecode="4ANA2BT4ANA1_3" length=0.04345046 units=km
New "Line.SBT_361993639_B" bus1="BT4274629845106248MT02.1.2.4" bus2="BT42748945103264MT02.1.2.4" linecode="3X7070AX2BT3X7071_3" length=0.04081832 units=km
New "Line.SBT_29449906_F" bus1="BT4274652545910092MT02.1.2.4" bus2="BT4274652545913292MT02.1.2.4" linecode="4ANA2BT4ANA1_3" length=0.03299200 units=km
New "Line.SBT_140168120_F" bus1="BT4300008445662149MT02.1.2.4" bus2="BT4300475845662315MT02.1.2.4" linecode="4ANA2BT4ANA1_3" length=0.04821884 units=km
New "Line.SBT_293898351_F" bus1="BT4367104745305966MT02.1.2" bus2="BT4367103545305971MT02.1.2" linecode="2X4AC2BT1_2" length=0.00013403 units=km
New "Line.SBT_7530911_F" bus1="BT4362569145309281MT02.1.2" bus2="BT4362236445310188MT02.1.2" linecode="1/0AN2BT1_2" length=0.03555300 units=km
New "Line.SBT_373477529_F" bus1="BT4288778745266602MT02.1.2.4" bus2="BT4289172145267513MT02.1.2.4" linecode="1/0AN2BT4ANA1_3" length=0.04163281 units=km
New "Line.SBT_7406067_B" bus1="BT4391112645358463MT02.1.2.4" bus2="BT4390884445356536MT02.1.2.4" linecode="1/0AN2BT1/0AN1_3" length=0.03079391 units=km
New "Line.SBT_373374658_F" bus1="BT4298941545480833MT02.1.2.4" bus2="BT4298797645478212MT02.1.2.4" linecode="1/0AN2BT4ANA1_3" length=0.03082690 units=km
New "Line.SBT_207271197_F" bus1="BT4388245945346047MT02.1.2" bus2="BT4387833845345045MT02.1.2" linecode="4AN2BT1_2" length=0.04372574 units=km
New "Line.SBT_4313593_F" bus1="BT4299079545664035MT02.1.2.4" bus2="BT42992494566362MT02.1.2.4" linecode="4ANA2BT4ANA1_3" length=0.01799198 units=km
New "Line.SBT_361993662_F" bus1="BT4274769945110026MT02.1.2.4" bus2="BT4274629845106248MT02.1.2.4" linecode="3X7070AX2BT3X7071_3" length=0.04154311 units=km
New "Line.SBT_140168106_F" bus1="BT42992494566362MT02.1.2.4" bus2="BT429951345662735MT02.1.2.4" linecode="4ANA2BT4ANA1_3" length=0.02870716 units=km
New "Line.SBT_271865733_B" bus1="BT4270693145190287MT02.1.2.4" bus2="BT4270935645192255MT02.1.2.4" linecode="2X7070AXNI2BT2X7071_3" length=0.03219916 units=km
New "Line.SBT_271685883_F" bus1="BT427136145195251MT02.1.2.4" bus2="BT4271378445197201MT02.1.2.4" linecode="2X7070AXNI2BT2X7071_3" length=0.02018389 units=km
New "Line.SBT_293908211_F" bus1="BT4297392345292862MT02.1.2.4" bus2="BT4297806245293057MT02.1.2.4" linecode="1/0AN2BT1/0AN1_3" length=0.04272052 units=km
New "Line.SBT_8229873_F" bus1="BT4278426345151508MT02.1.2.4" bus2="BT4278248145149394MT02.1.2.4" linecode="1/0AN2BT4ANA1_3" length=0.02850612 units=km
New "Line.SBT_7340721_F" bus1="BT430570014539951MT02.1.2.4" bus2="BT4306006945395075MT02.1.2.4" linecode="4ANA2BT4ANA1_3" length=0.05559977 units=km
New "Line.SBT_4740136_F" bus1="BT4295647345347827MT02.1.2.4" bus2="BT4295162945353253MT02.1.2.4" linecode="4ANA2BT4ANA1_3" length=0.07499082 units=km
New "Line.SBT_8299690_F" bus1="BT434646974541343MT02.2.3.4" bus2="BT43466545410415MT02.2.3.4" linecode="1/0AN2BT1/0AN1_3" length=0.03621903 units=km
New "Line.SBT_8093788_F" bus1="BT4364852545299092MT02.1.2.4" bus2="BT4365248545299888MT02.1.2.4" linecode="4AN2BT3/0AN1_3" length=0.04164415 units=km
New "Line.SBT_8616442_F" bus1="BT4391706345364322MT02.1.2.4" bus2="BT4391709945364306MT02.1.2.4" linecode="1/0AN2BT1/0AN1_3" length=0.00040621 units=km
New "Line.SBT_4191363_F" bus1="BT4363466245292388MT02.1.2" bus2="BT4363132645294364MT02.1.2" linecode="4AN2BT1_2" length=0.03997496 units=km
New "Line.SBT_261528282_F" bus1="BT4271703145203202MT02.1.2.4" bus2="BT4271919445205955MT02.1.2.4" linecode="2X7070AXNI2BT2X7071_3" length=0.03609634 units=km
New "Line.SBT_8229872_F" bus1="BT4278607945153927MT02.1.2.4" bus2="BT4278426345151508MT02.1.2.4" linecode="1/0AN2BT4ANA1_3" length=0.03118569 units=km
New "Line.SBT_8093787_F" bus1="BT436454334529967MT02.1.2.4" bus2="BT4364852545299092MT02.1.2.4" linecode="4AN2BT3/0AN1_3" length=0.03243114 units=km
New "Line.SBT_4132907_F" bus1="BT436816245328092MT02.1.2.4" bus2="BT4367758845328038MT02.1.2.4" linecode="1/0AN2BT3/0AN1_3" length=0.04157404 units=km
New "Line.SBT_7976298_F" bus1="BT4370396845313573MT02.2.3.4" bus2="BT437042474531023MT02.2.3.4" linecode="1/0AN2BT1/0AN1_3" length=0.03458593 units=km
New "Line.SBT_31350857_F" bus1="BT4388775145348017MT02.1.2" bus2="BT4389269845349388MT02.1.2" linecode="1/0AN2BT1_2" length=0.05292639 units=km
New "Line.SBT_296467027_F" bus1="BT4285413945281464MT02.1.2.4" bus2="BT428548874528365MT02.1.2.4" linecode="1/0AN2BT1/0AN1_3" length=0.02382022 units=km
New "Line.SBT_4792172_F" bus1="BT427395684508198MT02.1.2.4" bus2="BT427412145077861MT02.1.2.4" linecode="3X7070AX3BT3X7071_3" length=0.04571660 units=km
New "Line.SBT_373368933_F" bus1="BT4299086845487069MT02.1.2.4" bus2="BT4299211845484846MT02.1.2.4" linecode="1/0AN2BT4ANA1_3" length=0.02629359 units=km
New "Line.SBT_8545512_B" bus1="BT4390883445356531MT02.1.2.4" bus2="BT4390592645355121MT02.1.2.4" linecode="1/0AN2BT1/0AN1_3" length=0.03331986 units=km
New "Line.SBT_3394638_B" bus1="BT4273956545081997MT02.1.2.4" bus2="BT427395684508198MT02.1.2.4" linecode="1/0AN2BT1/0AN1_3" length=0.00017836 units=km
New "Line.SBT_8162458_F" bus1="BT4367103545305971MT02.1.2" bus2="BT4367472645307966MT02.1.2" linecode="4AN2BT1_2" length=0.04325767 units=km
New "Line.SBT_296467060_F" bus1="BT4285918945299338MT02.1.2.4" bus2="BT4285945745299593MT02.1.2.4" linecode="4ANA2BT4ANA1_3" length=0.00381367 units=km
New "Line.SBT_296467039_F" bus1="BT4285629145288393MT02.1.2.4" bus2="BT4285392545291997MT02.1.2.4" linecode="4AN2BT4AN1_3" length=0.04444847 units=km
New "Line.SBT_213568329_F" bus1="BT4375430645445662MT02.1.2.4" bus2="BT4375300545448915MT02.1.2.4" linecode="2X7070AX2BT2X7071_3" length=0.03612109 units=km
New "Line.SBT_373368840_B" bus1="BT4299204945490642MT02.1.2.4" bus2="BT429943345494499MT02.1.2.4" linecode="1/0AN2BT4AN1_3" length=0.04619911 units=km
New "Line.SBT_7988781_F" bus1="BT4370981645279274MT02.2.3" bus2="BT4370877345277653MT02.2.3" linecode="1/0AN2BT1_2" length=0.01987356 units=km
New "Line.SBT_140168072_B" bus1="BT4299079545664035MT02.1.2.4" bus2="BT4298615345665641MT02.1.2.4" linecode="4ANA2BT4ANA1_3" length=0.05064272 units=km
New "Line.SBT_204541250_B" bus1="BT4274886445103068MT02.1.2.4" bus2="BT427478745098762MT02.1.2.4" linecode="3X7070AX2BT3X7071_3" length=0.04556195 units=km
New "Line.SBT_4441338_F" bus1="BT4279259345160525MT02.1.2.4" bus2="BT427949414516312MT02.1.2.4" linecode="2X7070AX2BT2X7071_3" length=0.03608088 units=km
New "Line.SBT_361993661_B" bus1="BT4274769945110026MT02.1.2.4" bus2="BT4274844945113939MT02.1.2.4" linecode="3X7070AX2BT3X7071_3" length=0.04107710 units=km
New "Line.SBT_296467041_F" bus1="BT4285550445286277MT02.1.2.4" bus2="BT4285629145288393MT02.1.2.4" linecode="4AN2BT4AN1_3" length=0.02327586 units=km
New "Line.SBT_261528281_F" bus1="BT4271490145200521MT02.1.2.4" bus2="BT4271703145203202MT02.1.2.4" linecode="2X7070AXNI2BT2X7071_3" length=0.03530247 units=km
New "Line.SBT_7533106_F" bus1="BT4333748445841282MT02.2.3.4" bus2="BT4333674945837477MT02.2.3.4" linecode="4ANA2BT4ANA1_3" length=0.03995434 units=km
New "Line.SBT_3937085_F" bus1="BT428311545471014MT02.1.2.4" bus2="BT4282965545467339MT02.1.2.4" linecode="1/0AN2BT4AN1_3" length=0.04090389 units=km
New "Line.SBT_216439452_B" bus1="BT437547974543221MT02.1.2.4" bus2="BT4375559645435226MT02.1.2.4" linecode="2X7070AX2BT2X7071_3" length=0.03216720 units=km
New "Line.SBT_7546141_F" bus1="BT4369992445379208MT02.1.2" bus2="BT4369962445382507MT02.1.2" linecode="1/0AC2BT1_2" length=0.03415291 units=km
New "Line.SBT_341457702_B" bus1="BT4345856845421485MT02.2.3" bus2="BT4345681345423507MT02.2.3" linecode="2X1010AX2BT1_2" length=0.02760399 units=km
New "Line.SBT_139286362_B" bus1="BT4286225545313779MT02.1.2.4" bus2="BT4286490545311277MT02.1.2.4" linecode="1/0AN2BT4ANA1_3" length=0.03757480 units=km
New "Line.SBT_4459974_F" bus1="BT429354174550257MT02.1.2.4" bus2="BT429325345504862MT02.1.2.4" linecode="1/0AN2BT1/0AN1_3" length=0.03800472 units=km
New "Line.SBT_8298597_F" bus1="BT433404945857112MT02.2.3.4" bus2="BT4334110445860781MT02.2.3.4" linecode="4ANA2BT4ANA1_3" length=0.03835320 units=km
New "Line.SBT_8616443_F" bus1="BT4391709945364306MT02.1.2.4" bus2="BT4392012845362941MT02.1.2.4" linecode="1/0AN2BT1/0AN1_3" length=0.03425394 units=km
New "Line.SBT_386281510_B" bus1="BT4270667145190075MT02.1.2.4" bus2="BT4270660645190023MT02.1.2.4" linecode="2X7070AXNI2BT2X7071_3" length=0.00085779 units=km
New "Line.SBT_289253229_B" bus1="BT4345340645428457MT02.2.3" bus2="BT4345169745430885MT02.2.3" linecode="2X1010AX2BT1_2" length=0.03061245 units=km
New "Line.SBT_31611730_B" bus1="BT439028445354097MT02.1.2.4" bus2="BT4390283245354094MT02.1.2.4" linecode="1/0AN2BT1/0AN1_3" length=0.00008764 units=km
New "Line.SBT_8117105_F" bus1="BT436454334529967MT02.1.2" bus2="BT4364375845296002MT02.1.2" linecode="4AN2BT1_2" length=0.04157404 units=km
New "Line.SBT_3649678_F" bus1="BT4363190245298589MT02.1.2.4" bus2="BT4362910145297789MT02.1.2.4" linecode="1/0AN2BT3/0AN1_3" length=0.03003303 units=km
New "Line.SBT_373423784_B" bus1="BT4294660145275906MT02.1.2.4" bus2="BT4294901845277472MT02.1.2.4" linecode="3X7070AXNI3BT3X7071_3" length=0.02969280 units=km
New "Line.SBT_362021663_B" bus1="BT427408245086018MT02.1.2.4" bus2="BT4273956545081997MT02.1.2.4" linecode="3X7070AX3BT3X7071_3" length=0.04342881 units=km
New "Line.SBT_31656895_F" bus1="BT4296998145292892MT02.1.2.4" bus2="BT4296624545292859MT02.1.2.4" linecode="1/0AN2BT1/0AN1_3" length=0.03851919 units=km
New "Line.SBT_262134734_F" bus1="BT4271003345185702MT02.1.2.4" bus2="BT4271226245185018MT02.1.2.4" linecode="2X7070AXNI2BT2X7071_3" length=0.02403880 units=km
New "Line.SBT_216434191_F" bus1="BT4375466245426356MT02.1.2.4" bus2="BT4375547945422891MT02.1.2.4" linecode="2X7070AX2BT2X7071_3" length=0.03670360 units=km
New "Line.SBT_8299691_F" bus1="BT43466545410415MT02.2.3.4" bus2="BT4346806745407331MT02.2.3.4" linecode="1/0AN2BT1/0AN1_3" length=0.03566538 units=km
New "Line.SBT_7967093_F" bus1="BT4394289645358548MT02.2.3.4" bus2="BT4394239145360041MT02.2.3.4" linecode="2X2525AX2BT2X2521_3" length=0.01624959 units=km
New "Line.SBT_140168050_B" bus1="BT4298186345668371MT02.1.2.4" bus2="BT4297885445670212MT02.1.2.4" linecode="4ANA2BT4ANA1_3" length=0.03636852 units=km
New "Line.SBT_4145774_F" bus1="BT4294342345492122MT02.1.2.4" bus2="BT4294657445489792MT02.1.2.4" linecode="2X7070AX2BT2X7071_3" length=0.04040386 units=km
New "Line.SBT_8190778_F" bus1="BT4306226545392052MT02.1.2.4" bus2="BT430648445387516MT02.1.2.4" linecode="4ANA2BT4ANA1_3" length=0.05377593 units=km
New "Line.SBT_8123709_F" bus1="BT4365637945300687MT02.1.2.4" bus2="BT4365969745301488MT02.1.2.4" linecode="4AN2BT3/0AN1_3" length=0.03519112 units=km
New "Line.SBT_139277750_F" bus1="BT430455344540237MT02.1.2.4" bus2="BT4304840745401036MT02.1.2.4" linecode="4ANA2BT4ANA1_3" length=0.03265796 units=km
New "Line.SBT_293908212_F" bus1="BT4297806245293057MT02.1.2.4" bus2="BT4297821845293064MT02.1.2.4" linecode="1/0AN2BT1/0AN1_3" length=0.00161042 units=km
New "Line.SBT_4183960_F" bus1="BT4363876545299984MT02.1.2" bus2="BT4363819645301196MT02.1.2" linecode="1/0AN2BT1_2" length=0.01380406 units=km
New "Line.SBT_7958426_F" bus1="BT4370072445367309MT02.1.2.4" bus2="BT4370052545370305MT02.1.2.4" linecode="1/0AC2BT4AN1_3" length=0.03095681 units=km
New "Line.SBT_296467050_F" bus1="BT4285392545291997MT02.1.2.4" bus2="BT4285576945297217MT02.1.2.4" linecode="4ANA2BT4ANA1_3" length=0.05707719 units=km