! DU_7_RamalBT_391_MTQ_RMTQ1302
New "Line.RBT_1000953516" bus1="BT4354967745330222MT02.1.2.4" bus2="BT1000953516.1.2.4" linecode="2X1010AX2BT1_3" length="0.01550000" units=km
New "Line.RBT_1001125037" bus1="BT4355862545340595MT02.1.2.4" bus2="BT1001125037.1.2.4" linecode="2X1010AX2BT1_3" length="0.01550000" units=km
New "Line.RBT_1000870800" bus1="BT4361173945357572MT02.1.2.4" bus2="BT1000870800.1.2.4" linecode="2X1010AX2BT1_3" length="0.01550000" units=km
New "Line.RBT_1000870566" bus1="BT4358147545332624MT02.1.2.4" bus2="BT1000870566.1.2.4" linecode="2X1010AX2BT1_3" length="0.01550000" units=km
New "Line.RBT_1000948057" bus1="BT435960845316019MT02.1.2.4" bus2="BT1000948057.1.2.4" linecode="2X1010AX2BT1_3" length="0.01550000" units=km
New "Line.RBT_1000876789" bus1="BT4360339845342447MT02.1.2.4" bus2="BT1000876789.1.2.4" linecode="2X1010AX2BT1_3" length="0.01550000" units=km
New "Line.RBT_1000869873" bus1="BT4364708345331115MT02.1.2.4" bus2="BT1000869873.1.2.4" linecode="2X1010AX2BT1_3" length="0.01550000" units=km
New "Line.RBT_1001119631" bus1="BT436308145324491MT02.1.2.4" bus2="BT1001119631.1.2.4" linecode="2X1010AX2BT1_3" length="0.01550000" units=km
New "Line.RBT_1000869702" bus1="BT4364337145346185MT02.1.2.4" bus2="BT1000869702.1.2.4" linecode="2X1010AX2BT1_3" length="0.01550000" units=km
New "Line.RBT_1000863886" bus1="BT4361329945335047MT02.1.2.4" bus2="BT1000863886.1.2.4" linecode="2X1010AX2BT1_3" length="0.01550000" units=km
New "Line.RBT_1001811068" bus1="BT4376689645385432MT02.1.2.4" bus2="BT1001811068.1.2.4" linecode="2X1010AX2BT1_3" length="0.01550000" units=km
New "Line.RBT_1001124404" bus1="BT4370649745457846MT02.1.2.4" bus2="BT1001124404.1.2.4" linecode="2X1010AX2BT1_3" length="0.01550000" units=km
New "Line.RBT_1000953661" bus1="BT435355845336018MT02.1.2.4" bus2="BT1000953661.1.2.4" linecode="2X1010AX2BT1_3" length="0.01550000" units=km
New "Line.RBT_1000926387" bus1="BT4362972145352192MT02.1.2.4" bus2="BT1000926387.1.2.4" linecode="2X1010AX2BT1_3" length="0.01550000" units=km
New "Line.RBT_1001124968" bus1="BT435650794533332MT02.1.2.4" bus2="BT1001124968.1.2.4" linecode="2X1010AX2BT1_3" length="0.01550000" units=km
New "Line.RBT_1000888887" bus1="BT4361007645324923MT02.1.2.4" bus2="BT1000888887.1.2.4" linecode="2X1010AX2BT1_3" length="0.01550000" units=km
New "Line.RBT_1000948098" bus1="BT4358727645326123MT02.1.2.4" bus2="BT1000948098.1.2.4" linecode="2X1010AX2BT1_3" length="0.01550000" units=km
New "Line.RBT_1001170504" bus1="BT43593645318658MT02.1.2.4" bus2="BT1001170504.1.2.4" linecode="2X1010AX2BT1_3" length="0.01550000" units=km
New "Line.RBT_1000948418" bus1="BT4357457845306721MT02.1.2.4" bus2="BT1000948418.1.2.4" linecode="2X1010AX2BT1_3" length="0.01550000" units=km
New "Line.RBT_1000888627" bus1="BT4363552445336813MT02.1.2.4" bus2="BT1000888627.1.2.4" linecode="2X1010AX2BT1_3" length="0.01550000" units=km
New "Line.RBT_1000948209" bus1="BT4356379945345447MT02.1.2.4" bus2="BT1000948209.1.2.4" linecode="2X1010AX2BT1_3" length="0.01550000" units=km
New "Line.RBT_1000876908" bus1="BT4361059945348347MT02.1.2.4" bus2="BT1000876908.1.2.4" linecode="2X1010AX2BT1_3" length="0.01550000" units=km
New "Line.RBT_1001119484" bus1="BT4375466245426356MT02.1.2.4" bus2="BT1001119484.1.2.4" linecode="2X1010AX2BT1_3" length="0.01550000" units=km
New "Line.RBT_1000926158" bus1="BT4363693745367751MT02.1.2.4" bus2="BT1000926158.1.2.4" linecode="2X1010AX2BT1_3" length="0.01550000" units=km
New "Line.RBT_1000870789" bus1="BT4361173945357572MT02.1.2.4" bus2="BT1000870789.1.2.4" linecode="2X1010AX2BT1_3" length="0.01550000" units=km
New "Line.RBT_1000888671" bus1="BT4363948145331917MT02.1.2.4" bus2="BT1000888671.1.2.4" linecode="2X1010AX2BT1_3" length="0.01550000" units=km
New "Line.RBT_1000893953" bus1="BT4360242645333207MT02.1.2.4" bus2="BT1000893953.1.2.4" linecode="2X1010AX2BT1_3" length="0.01550000" units=km
New "Line.RBT_1001550899" bus1="BT4356379945345447MT02.1.2.4" bus2="BT1001550899.1.2.4" linecode="2X1010AX2BT1_3" length="0.01550000" units=km
New "Line.RBT_1000882081" bus1="BT43617845354148MT02.1.2.4" bus2="BT1000882081.1.2.4" linecode="2X1010AX2BT1_3" length="0.01550000" units=km
New "Line.RBT_1000932272" bus1="BT436339894535925MT02.1.2.4" bus2="BT1000932272.1.2.4" linecode="2X1010AX2BT1_3" length="0.01550000" units=km
New "Line.RBT_1000888637" bus1="BT4363552445336813MT02.1.2.4" bus2="BT1000888637.1.2.4" linecode="2X1010AX2BT1_3" length="0.01550000" units=km
New "Line.RBT_1000869475" bus1="BT4361809745339046MT02.1.2.4" bus2="BT1000869475.1.2.4" linecode="2X1010AX2BT1_3" length="0.01550000" units=km
New "Line.RBT_1001486969" bus1="BT4357530145294949MT02.1.2.4" bus2="BT1001486969.1.2.4" linecode="2X1010AX2BT1_3" length="0.01550000" units=km
New "Line.RBT_1000953586" bus1="BT4353266645349633MT02.1.2.4" bus2="BT1000953586.1.2.4" linecode="2X1010AX2BT1_3" length="0.01550000" units=km
New "Line.RBT_1000948287" bus1="BT4358248445322913MT02.1.2.4" bus2="BT1000948287.1.2.4" linecode="2X1010AX2BT1_3" length="0.01550000" units=km
New "Line.RBT_1000863922" bus1="BT4361569745337046MT02.1.2.4" bus2="BT1000863922.1.2.4" linecode="2X1010AX2BT1_3" length="0.01550000" units=km
New "Line.RBT_1000869696" bus1="BT4364337145346185MT02.1.2.4" bus2="BT1000869696.1.2.4" linecode="2X1010AX2BT1_3" length="0.01550000" units=km
New "Line.RBT_1000953505" bus1="BT4355217845327321MT02.1.2.4" bus2="BT1000953505.1.2.4" linecode="2X1010AX2BT1_3" length="0.01550000" units=km
New "Line.RBT_1000888742" bus1="BT4363948145331917MT02.1.2.4" bus2="BT1000888742.1.2.4" linecode="2X1010AX2BT1_3" length="0.01550000" units=km
New "Line.RBT_1000882260" bus1="BT4361219445341443MT02.1.2.4" bus2="BT1000882260.1.2.4" linecode="2X1010AX2BT1_3" length="0.01550000" units=km
New "Line.RBT_1001119461" bus1="BT4375466245426356MT02.1.2.4" bus2="BT1001119461.1.2.4" linecode="2X1010AX2BT1_3" length="0.01550000" units=km
New "Line.RBT_1000948183" bus1="BT4356880545348152MT02.1.2.4" bus2="BT1000948183.1.2.4" linecode="2X1010AX2BT1_3" length="0.01550000" units=km
New "Line.RBT_1001119503" bus1="BT4371117445423486MT02.1.2.4" bus2="BT1001119503.1.2.4" linecode="2X1010AX2BT1_3" length="0.01550000" units=km
New "Line.RBT_1000870698" bus1="BT4359982345347823MT02.1.2.4" bus2="BT1000870698.1.2.4" linecode="2X1010AX2BT1_3" length="0.01550000" units=km
New "Line.RBT_1000838614" bus1="BT4363327845329621MT02.1.2.4" bus2="BT1000838614.1.2.4" linecode="2X1010AX2BT1_3" length="0.01550000" units=km
New "Line.RBT_1001453501" bus1="BT4363371145324691MT02.1.2.4" bus2="BT1001453501.1.2.4" linecode="2X1010AX2BT1_3" length="0.01550000" units=km
New "Line.RBT_1000953462" bus1="BT4356615745310642MT02.1.2.4" bus2="BT1000953462.1.2.4" linecode="2X1010AX2BT1_3" length="0.01550000" units=km
New "Line.RBT_1000869859" bus1="BT4364488245334016MT02.1.2.4" bus2="BT1000869859.1.2.4" linecode="2X1010AX2BT1_3" length="0.01550000" units=km
New "Line.RBT_1000894004" bus1="BT4359618445341114MT02.1.2.4" bus2="BT1000894004.1.2.4" linecode="2X1010AX2BT1_3" length="0.01550000" units=km
New "Line.RBT_1001119887" bus1="BT4357215645324928MT02.1.2.4" bus2="BT1001119887.1.2.4" linecode="2X1010AX2BT1_3" length="0.01550000" units=km
New "Line.RBT_1000882029" bus1="BT4361549945352248MT02.1.2.4" bus2="BT1000882029.1.2.4" linecode="2X1010AX2BT1_3" length="0.01550000" units=km
New "Line.RBT_1000870489" bus1="BT4356649845320446MT02.1.2.4" bus2="BT1000870489.1.2.4" linecode="2X1010AX2BT1_3" length="0.01550000" units=km
New "Line.RBT_1001879328" bus1="BT435538344534626MT02.1.2.4" bus2="BT1001879328.1.2.4" linecode="2X1010AX2BT1_3" length="0.01550000" units=km
New "Line.RBT_1000932310" bus1="BT4363631445361154MT02.1.2.4" bus2="BT1000932310.1.2.4" linecode="2X1010AX2BT1_3" length="0.01550000" units=km
New "Line.RBT_1001547085" bus1="BT4355450245324356MT02.1.2.4" bus2="BT1001547085.1.2.4" linecode="2X1010AX2BT1_3" length="0.01550000" units=km
New "Line.RBT_1000932314" bus1="BT4363631445361154MT02.1.2.4" bus2="BT1000932314.1.2.4" linecode="2X1010AX2BT1_3" length="0.01550000" units=km
New "Line.RBT_1000870484" bus1="BT4356656145320369MT02.1.2.4" bus2="BT1000870484.1.2.4" linecode="2X1010AX2BT1_3" length="0.01550000" units=km
New "Line.RBT_1000948069" bus1="BT4359367545318724MT02.1.2.4" bus2="BT1000948069.1.2.4" linecode="2X1010AX2BT1_3" length="0.01550000" units=km
New "Line.RBT_1000869862" bus1="BT4364488245334016MT02.1.2.4" bus2="BT1000869862.1.2.4" linecode="2X1010AX2BT1_3" length="0.01550000" units=km
New "Line.RBT_1000869776" bus1="BT4365251245346692MT02.1.2.4" bus2="BT1000869776.1.2.4" linecode="2X1010AX2BT1_3" length="0.01550000" units=km
New "Line.RBT_1001857200" bus1="BT4373055945371374MT02.1.2.4" bus2="BT1001857200.1.2.4" linecode="2X1010AX2BT1_3" length="0.01550000" units=km
New "Line.RBT_1000948299" bus1="BT4358248445322913MT02.1.2.4" bus2="BT1000948299.1.2.4" linecode="2X1010AX2BT1_3" length="0.01550000" units=km
New "Line.RBT_1000926416" bus1="BT4362972145352192MT02.1.2.4" bus2="BT1000926416.1.2.4" linecode="2X1010AX2BT1_3" length="0.01550000" units=km
New "Line.RBT_1000869482" bus1="BT4361809745339046MT02.1.2.4" bus2="BT1000869482.1.2.4" linecode="2X1010AX2BT1_3" length="0.01550000" units=km
New "Line.RBT_1000881981" bus1="BT4361549945352248MT02.1.2.4" bus2="BT1000881981.1.2.4" linecode="2X1010AX2BT1_3" length="0.01550000" units=km
New "Line.RBT_1000953502" bus1="BT4355217845327321MT02.1.2.4" bus2="BT1000953502.1.2.4" linecode="2X1010AX2BT1_3" length="0.01550000" units=km
New "Line.RBT_1000888561" bus1="BT436273264534661MT02.1.2.4" bus2="BT1000888561.1.2.4" linecode="2X1010AX2BT1_3" length="0.01550000" units=km
New "Line.RBT_1001400442" bus1="BT437145745318441MT02.1.2.4" bus2="BT1001400442.1.2.4" linecode="2X1010AX2BT1_3" length="0.01550000" units=km
New "Line.RBT_1000876812" bus1="BT4360569845344346MT02.1.2.4" bus2="BT1000876812.1.2.4" linecode="2X1010AX2BT1_3" length="0.01550000" units=km
New "Line.RBT_1000876611" bus1="BT4369064945435755MT02.1.2.4" bus2="BT1000876611.1.2.4" linecode="2X1010AX2BT1_3" length="0.01550000" units=km
New "Line.RBT_1000869820" bus1="BT4364028245339616MT02.1.2.4" bus2="BT1000869820.1.2.4" linecode="2X1010AX2BT1_3" length="0.01550000" units=km
New "Line.RBT_1000953625" bus1="BT4355708445309987MT02.1.2.4" bus2="BT1000953625.1.2.4" linecode="2X1010AX2BT1_3" length="0.01550000" units=km
New "Line.RBT_1001561558" bus1="BT4362846845331084MT02.1.2.4" bus2="BT1001561558.1.2.4" linecode="2X1010AX2BT1_3" length="0.01550000" units=km
New "Line.RBT_1000953534" bus1="BT435475794533272MT02.1.2.4" bus2="BT1000953534.1.2.4" linecode="2X1010AX2BT1_3" length="0.01550000" units=km
New "Line.RBT_1000869450" bus1="BT4361569745337046MT02.1.2.4" bus2="BT1000869450.1.2.4" linecode="2X1010AX2BT1_3" length="0.01550000" units=km
New "Line.RBT_1000882087" bus1="BT4360489545335444MT02.1.2.4" bus2="BT1000882087.1.2.4" linecode="2X1010AX2BT1_3" length="0.01550000" units=km
New "Line.RBT_1001119842" bus1="BT4354444745348191MT02.1.2.4" bus2="BT1001119842.1.2.4" linecode="2X1010AX2BT1_3" length="0.01550000" units=km
New "Line.RBT_1000888719" bus1="BT4363948145331917MT02.1.2.4" bus2="BT1000888719.1.2.4" linecode="2X1010AX2BT1_3" length="0.01550000" units=km
New "Line.RBT_1000894018" bus1="BT4359618445341114MT02.1.2.4" bus2="BT1000894018.1.2.4" linecode="2X1010AX2BT1_3" length="0.01550000" units=km
New "Line.RBT_1000882243" bus1="BT4361219445341443MT02.1.2.4" bus2="BT1000882243.1.2.4" linecode="2X1010AX2BT1_3" length="0.01550000" units=km
New "Line.RBT_1000838446" bus1="BT4363406845334616MT02.1.2.4" bus2="BT1000838446.1.2.4" linecode="2X1010AX2BT1_3" length="0.01550000" units=km
New "Line.RBT_1001119599" bus1="BT4358093445299292MT02.1.2.4" bus2="BT1001119599.1.2.4" linecode="2X1010AX2BT1_3" length="0.01550000" units=km
New "Line.RBT_1000888759" bus1="BT4364148145329317MT02.1.2.4" bus2="BT1000888759.1.2.4" linecode="2X1010AX2BT1_3" length="0.01550000" units=km
New "Line.RBT_1000888609" bus1="BT4363337445339625MT02.1.2.4" bus2="BT1000888609.1.2.4" linecode="2X1010AX2BT1_3" length="0.01550000" units=km
New "Line.RBT_1000869601" bus1="BT4362529645344945MT02.1.2.4" bus2="BT1000869601.1.2.4" linecode="2X1010AX2BT1_3" length="0.01550000" units=km
New "Line.RBT_1000888909" bus1="BT4360817645327123MT02.1.2.4" bus2="BT1000888909.1.2.4" linecode="2X1010AX2BT1_3" length="0.01550000" units=km
New "Line.RBT_1000882215" bus1="BT4361219445341443MT02.1.2.4" bus2="BT1000882215.1.2.4" linecode="2X1010AX2BT1_3" length="0.01550000" units=km
New "Line.RBT_1000876875" bus1="BT4360829845346446MT02.1.2.4" bus2="BT1000876875.1.2.4" linecode="2X1010AX2BT1_3" length="0.01550000" units=km
New "Line.RBT_1000870463" bus1="BT4356389345318242MT02.1.2.4" bus2="BT1000870463.1.2.4" linecode="2X1010AX2BT1_3" length="0.01550000" units=km
New "Line.RBT_1000863874" bus1="BT4361079945333047MT02.1.2.4" bus2="BT1000863874.1.2.4" linecode="2X1010AX2BT1_3" length="0.01550000" units=km
New "Line.RBT_1000869893" bus1="BT4364488245334016MT02.1.2.4" bus2="BT1000869893.1.2.4" linecode="2X1010AX2BT1_3" length="0.01550000" units=km
New "Line.RBT_1000876776" bus1="BT4360339845342447MT02.1.2.4" bus2="BT1000876776.1.2.4" linecode="2X1010AX2BT1_3" length="0.01550000" units=km
New "Line.RBT_1001573842" bus1="BT4354302545326703MT02.1.2.4" bus2="BT1001573842.1.2.4" linecode="2X1010AX2BT1_3" length="0.01550000" units=km
New "Line.RBT_1000882098" bus1="BT4360489545335444MT02.1.2.4" bus2="BT1000882098.1.2.4" linecode="2X1010AX2BT1_3" length="0.01550000" units=km
New "Line.RBT_1001363460" bus1="BT4371341645303467MT02.1.2.4" bus2="BT1001363460.1.2.4" linecode="2X1010AX2BT1_3" length="0.01550000" units=km
New "Line.RBT_1000869556" bus1="BT4362529645344945MT02.1.2.4" bus2="BT1000869556.1.2.4" linecode="2X1010AX2BT1_3" length="0.01550000" units=km
New "Line.RBT_1000888899" bus1="BT4360817645327123MT02.1.2.4" bus2="BT1000888899.1.2.4" linecode="2X1010AX2BT1_3" length="0.01550000" units=km
New "Line.RBT_1000876830" bus1="BT4360569845344346MT02.1.2.4" bus2="BT1000876830.1.2.4" linecode="2X1010AX2BT1_3" length="0.01550000" units=km
New "Line.RBT_1000926397" bus1="BT4362972145352192MT02.1.2.4" bus2="BT1000926397.1.2.4" linecode="2X1010AX2BT1_3" length="0.01550000" units=km
New "Line.RBT_1000869459" bus1="BT4361809745339046MT02.1.2.4" bus2="BT1000869459.1.2.4" linecode="2X1010AX2BT1_3" length="0.01550000" units=km
New "Line.RBT_1000870694" bus1="BT4359982345347823MT02.1.2.4" bus2="BT1000870694.1.2.4" linecode="2X1010AX2BT1_3" length="0.01550000" units=km
New "Line.RBT_1000870804" bus1="BT4361173945357572MT02.1.2.4" bus2="BT1000870804.1.2.4" linecode="2X1010AX2BT1_3" length="0.01550000" units=km
New "Line.RBT_1000888735" bus1="BT4363948145331917MT02.1.2.4" bus2="BT1000888735.1.2.4" linecode="2X1010AX2BT1_3" length="0.01550000" units=km
New "Line.RBT_1000869733" bus1="BT4364641545346392MT02.1.2.4" bus2="BT1000869733.1.2.4" linecode="2X1010AX2BT1_3" length="0.01550000" units=km
New "Line.RBT_1000888792" bus1="BT4364148145329317MT02.1.2.4" bus2="BT1000888792.1.2.4" linecode="2X1010AX2BT1_3" length="0.01550000" units=km
New "Line.RBT_1000937438" bus1="BT4364038945352039MT02.1.2.4" bus2="BT1000937438.1.2.4" linecode="2X1010AX2BT1_3" length="0.01550000" units=km
New "Line.RBT_1000875436" bus1="BT4364708345331115MT02.1.2.4" bus2="BT1000875436.1.2.4" linecode="2X1010AX2BT1_3" length="0.01550000" units=km
New "Line.RBT_1000888494" bus1="BT4362014945355891MT02.1.2.4" bus2="BT1000888494.1.2.4" linecode="2X1010AX2BT1_3" length="0.01550000" units=km
New "Line.RBT_1000835273" bus1="BT4370966645458533MT02.1.2.4" bus2="BT1000835273.1.2.4" linecode="2X1010AX2BT1_3" length="0.01550000" units=km
New "Line.RBT_1000882156" bus1="BT4360989845339447MT02.1.2.4" bus2="BT1000882156.1.2.4" linecode="2X1010AX2BT1_3" length="0.01550000" units=km
New "Line.RBT_1001834322" bus1="BT4364148145329317MT02.1.2.4" bus2="BT1001834322.1.2.4" linecode="2X1010AX2BT1_3" length="0.01550000" units=km
New "Line.RBT_1001119638" bus1="BT436283145324291MT02.1.2.4" bus2="BT1001119638.1.2.4" linecode="2X1010AX2BT1_3" length="0.01550000" units=km
New "Line.RBT_1001482554" bus1="BT4363171345331461MT02.1.2.4" bus2="BT1001482554.1.2.4" linecode="2X1010AX2BT1_3" length="0.01550000" units=km
New "Line.RBT_1000948200" bus1="BT4356078845342938MT02.1.2.4" bus2="BT1000948200.1.2.4" linecode="2X1010AX2BT1_3" length="0.01550000" units=km
New "Line.RBT_1000937452" bus1="BT4364038945352039MT02.1.2.4" bus2="BT1000937452.1.2.4" linecode="2X1010AX2BT1_3" length="0.01550000" units=km
New "Line.RBT_1000876488" bus1="BT4369491945435819MT02.1.2.4" bus2="BT1000876488.1.2.4" linecode="2X1010AX2BT1_3" length="0.01550000" units=km
New "Line.RBT_1000953451" bus1="BT4356387845313321MT02.1.2.4" bus2="BT1000953451.1.2.4" linecode="2X1010AX2BT1_3" length="0.01550000" units=km
New "Line.RBT_1000932268" bus1="BT4363421645365646MT02.1.2.4" bus2="BT1000932268.1.2.4" linecode="2X1010AX2BT1_3" length="0.01550000" units=km
New "Line.RBT_1000953801" bus1="BT4355565945344389MT02.1.2.4" bus2="BT1000953801.1.2.4" linecode="2X1010AX2BT1_3" length="0.01550000" units=km
New "Line.RBT_1001119476" bus1="BT4375910545417741MT02.1.2.4" bus2="BT1001119476.1.2.4" linecode="2X1010AX2BT1_3" length="0.01550000" units=km
New "Line.RBT_1000888747" bus1="BT4364148145329317MT02.1.2.4" bus2="BT1000888747.1.2.4" linecode="2X1010AX2BT1_3" length="0.01550000" units=km
New "Line.RBT_1000833404" bus1="BT4362960445340151MT02.1.2.4" bus2="BT1000833404.1.2.4" linecode="2X1010AX2BT1_3" length="0.01550000" units=km
New "Line.RBT_1001119897" bus1="BT4356967845327921MT02.1.2.4" bus2="BT1001119897.1.2.4" linecode="2X1010AX2BT1_3" length="0.01550000" units=km
New "Line.RBT_1000876622" bus1="BT4369064945435755MT02.1.2.4" bus2="BT1000876622.1.2.4" linecode="2X1010AX2BT1_3" length="0.01550000" units=km
New "Line.RBT_1000953591" bus1="BT4355287845315121MT02.1.2.4" bus2="BT1000953591.1.2.4" linecode="2X1010AX2BT1_3" length="0.01550000" units=km
New "Line.RBT_1000863825" bus1="BT436085034533115MT02.1.2.4" bus2="BT1000863825.1.2.4" linecode="2X1010AX2BT1_3" length="0.01550000" units=km
New "Line.RBT_1000876844" bus1="BT4360829845346446MT02.1.2.4" bus2="BT1000876844.1.2.4" linecode="2X1010AX2BT1_3" length="0.01550000" units=km
New "Line.RBT_1000888633" bus1="BT4363552445336813MT02.1.2.4" bus2="BT1000888633.1.2.4" linecode="2X1010AX2BT1_3" length="0.01550000" units=km
New "Line.RBT_1000870542" bus1="BT4358147545332624MT02.1.2.4" bus2="BT1000870542.1.2.4" linecode="2X1010AX2BT1_3" length="0.01550000" units=km
New "Line.RBT_1000869826" bus1="BT436426845336719MT02.1.2.4" bus2="BT1000869826.1.2.4" linecode="2X1010AX2BT1_3" length="0.01550000" units=km
New "Line.RBT_1000882317" bus1="BT4361709845345346MT02.1.2.4" bus2="BT1000882317.1.2.4" linecode="2X1010AX2BT1_3" length="0.01550000" units=km
New "Line.RBT_1000869853" bus1="BT4364488245334016MT02.1.2.4" bus2="BT1000869853.1.2.4" linecode="2X1010AX2BT1_3" length="0.01550000" units=km
New "Line.RBT_1000948274" bus1="BT4357153845309723MT02.1.2.4" bus2="BT1000948274.1.2.4" linecode="2X1010AX2BT1_3" length="0.01550000" units=km
New "Line.RBT_1000948079" bus1="BT4359120445321581MT02.1.2.4" bus2="BT1000948079.1.2.4" linecode="2X1010AX2BT1_3" length="0.01550000" units=km
New "Line.RBT_1000838585" bus1="BT4362560145330691MT02.1.2.4" bus2="BT1000838585.1.2.4" linecode="2X1010AX2BT1_3" length="0.01550000" units=km
New "Line.RBT_1001879169" bus1="BT43700064543064MT02.1.2.4" bus2="BT1001879169.1.2.4" linecode="2X1010AX2BT1_3" length="0.01550000" units=km
New "Line.RBT_1001402957" bus1="BT4371801945318681MT02.1.2.4" bus2="BT1001402957.1.2.4" linecode="2X1010AX2BT1_3" length="0.01550000" units=km
New "Line.RBT_1000882161" bus1="BT43607345337448MT02.1.2.4" bus2="BT1000882161.1.2.4" linecode="2X1010AX2BT1_3" length="0.01550000" units=km
New "Line.RBT_1000953658" bus1="BT435355845336018MT02.1.2.4" bus2="BT1000953658.1.2.4" linecode="2X1010AX2BT1_3" length="0.01550000" units=km
New "Line.RBT_1000876797" bus1="BT4360339845342447MT02.1.2.4" bus2="BT1000876797.1.2.4" linecode="2X1010AX2BT1_3" length="0.01550000" units=km
New "Line.RBT_1001403535" bus1="BT4370569845317858MT02.1.2.4" bus2="BT1001403535.1.2.4" linecode="2X1010AX2BT1_3" length="0.01550000" units=km
New "Line.RBT_1000869737" bus1="BT4364641545346392MT02.1.2.4" bus2="BT1000869737.1.2.4" linecode="2X1010AX2BT1_3" length="0.01550000" units=km
New "Line.RBT_1000882183" bus1="BT4360989845339447MT02.1.2.4" bus2="BT1000882183.1.2.4" linecode="2X1010AX2BT1_3" length="0.01550000" units=km
New "Line.RBT_1001125090" bus1="BT4353759145321841MT02.1.2.4" bus2="BT1001125090.1.2.4" linecode="2X1010AX2BT1_3" length="0.01550000" units=km
New "Line.RBT_1000838619" bus1="BT4363327845329621MT02.1.2.4" bus2="BT1000838619.1.2.4" linecode="2X1010AX2BT1_3" length="0.01550000" units=km
New "Line.RBT_1000888913" bus1="BT4360614845329391MT02.1.2.4" bus2="BT1000888913.1.2.4" linecode="2X1010AX2BT1_3" length="0.01550000" units=km
New "Line.RBT_1000838476" bus1="BT4361674532959MT02.1.2.4" bus2="BT1000838476.1.2.4" linecode="2X1010AX2BT1_3" length="0.01550000" units=km
New "Line.RBT_1001125015" bus1="BT435627784533602MT02.1.2.4" bus2="BT1001125015.1.2.4" linecode="2X1010AX2BT1_3" length="0.01550000" units=km
New "Line.RBT_1001125052" bus1="BT435538344534626MT02.1.2.4" bus2="BT1001125052.1.2.4" linecode="2X1010AX2BT1_3" length="0.01550000" units=km
New "Line.RBT_1000869759" bus1="BT4364951545346492MT02.1.2.4" bus2="BT1000869759.1.2.4" linecode="2X1010AX2BT1_3" length="0.01550000" units=km
New "Line.RBT_1000869867" bus1="BT4364708345331115MT02.1.2.4" bus2="BT1000869867.1.2.4" linecode="2X1010AX2BT1_3" length="0.01550000" units=km
New "Line.RBT_1000882055" bus1="BT43617845354148MT02.1.2.4" bus2="BT1000882055.1.2.4" linecode="2X1010AX2BT1_3" length="0.01550000" units=km
New "Line.RBT_1001119642" bus1="BT436283145324291MT02.1.2.4" bus2="BT1001119642.1.2.4" linecode="2X1010AX2BT1_3" length="0.01550000" units=km
New "Line.RBT_1001565770" bus1="BT4353995545331498MT02.1.2.4" bus2="BT1001565770.1.2.4" linecode="2X1010AX2BT1_3" length="0.01550000" units=km
New "Line.RBT_1001787562" bus1="BT4356910545322552MT02.1.2.4" bus2="BT1001787562.1.2.4" linecode="2X1010AX2BT1_3" length="0.01550000" units=km
New "Line.RBT_1000863866" bus1="BT4361329945335047MT02.1.2.4" bus2="BT1000863866.1.2.4" linecode="2X1010AX2BT1_3" length="0.01550000" units=km
New "Line.RBT_1000926321" bus1="BT4362588545357035MT02.1.2.4" bus2="BT1000926321.1.2.4" linecode="2X1010AX2BT1_3" length="0.01550000" units=km
New "Line.RBT_1000953810" bus1="BT4354697145343528MT02.1.2.4" bus2="BT1000953810.1.2.4" linecode="2X1010AX2BT1_3" length="0.01550000" units=km
New "Line.RBT_1000937457" bus1="BT4364201245353654MT02.1.2.4" bus2="BT1000937457.1.2.4" linecode="2X1010AX2BT1_3" length="0.01550000" units=km
New "Line.RBT_1000882370" bus1="BT4361709845345346MT02.1.2.4" bus2="BT1000882370.1.2.4" linecode="2X1010AX2BT1_3" length="0.01550000" units=km
New "Line.RBT_1000888702" bus1="BT4363948145331917MT02.1.2.4" bus2="BT1000888702.1.2.4" linecode="2X1010AX2BT1_3" length="0.01550000" units=km
New "Line.RBT_1000888750" bus1="BT4364148145329317MT02.1.2.4" bus2="BT1000888750.1.2.4" linecode="2X1010AX2BT1_3" length="0.01550000" units=km
New "Line.RBT_1000948293" bus1="BT4358248445322913MT02.1.2.4" bus2="BT1000948293.1.2.4" linecode="2X1010AX2BT1_3" length="0.01550000" units=km
New "Line.RBT_1000870643" bus1="BT4359982345347823MT02.1.2.4" bus2="BT1000870643.1.2.4" linecode="2X1010AX2BT1_3" length="0.01550000" units=km
New "Line.RBT_1000869455" bus1="BT4361809745339046MT02.1.2.4" bus2="BT1000869455.1.2.4" linecode="2X1010AX2BT1_3" length="0.01550000" units=km
New "Line.RBT_1000870446" bus1="BT4356153945315991MT02.1.2.4" bus2="BT1000870446.1.2.4" linecode="2X1010AX2BT1_3" length="0.01550000" units=km
New "Line.RBT_1001119526" bus1="BT4359752745313519MT02.1.2.4" bus2="BT1001119526.1.2.4" linecode="2X1010AX2BT1_3" length="0.01550000" units=km
New "Line.RBT_1000953470" bus1="BT4355900245319056MT02.1.2.4" bus2="BT1000953470.1.2.4" linecode="2X1010AX2BT1_3" length="0.01550000" units=km
New "Line.RBT_1000869744" bus1="BT4364641545346392MT02.1.2.4" bus2="BT1000869744.1.2.4" linecode="2X1010AX2BT1_3" length="0.01550000" units=km
New "Line.RBT_1000882047" bus1="BT43617845354148MT02.1.2.4" bus2="BT1000882047.1.2.4" linecode="2X1010AX2BT1_3" length="0.01550000" units=km
New "Line.RBT_1000932112" bus1="BT4363324845370882MT02.1.2.4" bus2="BT1000932112.1.2.4" linecode="2X1010AX2BT1_3" length="0.01550000" units=km
New "Line.RBT_1000876616" bus1="BT4369064945435755MT02.1.2.4" bus2="BT1000876616.1.2.4" linecode="2X1010AX2BT1_3" length="0.01550000" units=km
New "Line.RBT_1000948278" bus1="BT4356876245307332MT02.1.2.4" bus2="BT1000948278.1.2.4" linecode="2X1010AX2BT1_3" length="0.01550000" units=km
New "Line.RBT_1001806713" bus1="BT436315845341818MT02.1.2.4" bus2="BT1001806713.1.2.4" linecode="2X1010AX2BT1_3" length="0.01550000" units=km
New "Line.RBT_1000876606" bus1="BT4369064945435755MT02.1.2.4" bus2="BT1000876606.1.2.4" linecode="2X1010AX2BT1_3" length="0.01550000" units=km
New "Line.RBT_1000932124" bus1="BT436260545361299MT02.1.2.4" bus2="BT1000932124.1.2.4" linecode="2X1010AX2BT1_3" length="0.01550000" units=km
New "Line.RBT_1000864935" bus1="BT4355154445307753MT02.1.2.4" bus2="BT1000864935.1.2.4" linecode="2X1010AX2BT1_3" length="0.01550000" units=km
New "Line.RBT_1000838461" bus1="BT436100944532869MT02.1.2.4" bus2="BT1000838461.1.2.4" linecode="2X1010AX2BT1_3" length="0.01550000" units=km
New "Line.RBT_1000863891" bus1="BT4361329945335047MT02.1.2.4" bus2="BT1000863891.1.2.4" linecode="2X1010AX2BT1_3" length="0.01550000" units=km
New "Line.RBT_1001124939" bus1="BT4356727745330622MT02.1.2.4" bus2="BT1001124939.1.2.4" linecode="2X1010AX2BT1_3" length="0.01550000" units=km
New "Line.RBT_1001125119" bus1="BT435326945317439MT02.1.2.4" bus2="BT1001125119.1.2.4" linecode="2X1010AX2BT1_3" length="0.01550000" units=km
New "Line.RBT_1000888933" bus1="BT4360614845329391MT02.1.2.4" bus2="BT1000888933.1.2.4" linecode="2X1010AX2BT1_3" length="0.01550000" units=km
New "Line.RBT_1000948296" bus1="BT4358248445322913MT02.1.2.4" bus2="BT1000948296.1.2.4" linecode="2X1010AX2BT1_3" length="0.01550000" units=km
New "Line.RBT_1000876889" bus1="BT4361059945348347MT02.1.2.4" bus2="BT1000876889.1.2.4" linecode="2X1010AX2BT1_3" length="0.01550000" units=km
New "Line.RBT_1000869646" bus1="BT4363782745342317MT02.1.2.4" bus2="BT1000869646.1.2.4" linecode="2X1010AX2BT1_3" length="0.01550000" units=km
New "Line.RBT_1000870758" bus1="BT4360575145352755MT02.1.2.4" bus2="BT1000870758.1.2.4" linecode="2X1010AX2BT1_3" length="0.01550000" units=km
New "Line.RBT_1001119618" bus1="BT4360339945318247MT02.1.2.4" bus2="BT1001119618.1.2.4" linecode="2X1010AX2BT1_3" length="0.01550000" units=km
New "Line.RBT_1000882064" bus1="BT43617845354148MT02.1.2.4" bus2="BT1000882064.1.2.4" linecode="2X1010AX2BT1_3" length="0.01550000" units=km
New "Line.RBT_1000888925" bus1="BT4360614845329391MT02.1.2.4" bus2="BT1000888925.1.2.4" linecode="2X1010AX2BT1_3" length="0.01550000" units=km
New "Line.RBT_1000926290" bus1="BT4364029745356281MT02.1.2.4" bus2="BT1000926290.1.2.4" linecode="2X1010AX2BT1_3" length="0.01550000" units=km
New "Line.RBT_1000870833" bus1="BT4361483345360006MT02.1.2.4" bus2="BT1000870833.1.2.4" linecode="2X1010AX2BT1_3" length="0.01550000" units=km
New "Line.RBT_1000948227" bus1="BT4356880545348152MT02.1.2.4" bus2="BT1000948227.1.2.4" linecode="2X1010AX2BT1_3" length="0.01550000" units=km
New "Line.RBT_1000882172" bus1="BT4360989845339447MT02.1.2.4" bus2="BT1000882172.1.2.4" linecode="2X1010AX2BT1_3" length="0.01550000" units=km
New "Line.RBT_1000888893" bus1="BT4360817645327123MT02.1.2.4" bus2="BT1000888893.1.2.4" linecode="2X1010AX2BT1_3" length="0.01550000" units=km
New "Line.RBT_1000888604" bus1="BT4363337445339625MT02.1.2.4" bus2="BT1000888604.1.2.4" linecode="2X1010AX2BT1_3" length="0.01550000" units=km
New "Line.RBT_1001125027" bus1="BT4355727545342625MT02.1.2.4" bus2="BT1001125027.1.2.4" linecode="2X1010AX2BT1_3" length="0.01550000" units=km
New "Line.RBT_1000882235" bus1="BT4361219445341443MT02.1.2.4" bus2="BT1000882235.1.2.4" linecode="2X1010AX2BT1_3" length="0.01550000" units=km
New "Line.RBT_1000932362" bus1="BT4363995945356814MT02.1.2.4" bus2="BT1000932362.1.2.4" linecode="2X1010AX2BT1_3" length="0.01550000" units=km
New "Line.RBT_1000869830" bus1="BT436426845336719MT02.1.2.4" bus2="BT1000869830.1.2.4" linecode="2X1010AX2BT1_3" length="0.01550000" units=km
New "Line.RBT_1000876855" bus1="BT4360829845346446MT02.1.2.4" bus2="BT1000876855.1.2.4" linecode="2X1010AX2BT1_3" length="0.01550000" units=km
New "Line.RBT_1000882276" bus1="BT4361469745343346MT02.1.2.4" bus2="BT1000882276.1.2.4" linecode="2X1010AX2BT1_3" length="0.01550000" units=km
New "Line.RBT_1001119489" bus1="BT4376519945399636MT02.1.2.4" bus2="BT1001119489.1.2.4" linecode="2X1010AX2BT1_3" length="0.01550000" units=km
New "Line.RBT_1000948063" bus1="BT43593645318658MT02.1.2.4" bus2="BT1000948063.1.2.4" linecode="2X1010AX2BT1_3" length="0.01550000" units=km
New "Line.RBT_1000948214" bus1="BT4356379945345447MT02.1.2.4" bus2="BT1000948214.1.2.4" linecode="2X1010AX2BT1_3" length="0.01550000" units=km
New "Line.RBT_1001119607" bus1="BT4358093445299292MT02.1.2.4" bus2="BT1001119607.1.2.4" linecode="2X1010AX2BT1_3" length="0.01550000" units=km
New "Line.RBT_1000882348" bus1="BT4361709845345346MT02.1.2.4" bus2="BT1000882348.1.2.4" linecode="2X1010AX2BT1_3" length="0.01550000" units=km
New "Line.RBT_1000882147" bus1="BT43607345337448MT02.1.2.4" bus2="BT1000882147.1.2.4" linecode="2X1010AX2BT1_3" length="0.01550000" units=km
New "Line.RBT_1000869621" bus1="BT4363782745342317MT02.1.2.4" bus2="BT1000869621.1.2.4" linecode="2X1010AX2BT1_3" length="0.01550000" units=km
New "Line.RBT_1000838470" bus1="BT4361674532959MT02.1.2.4" bus2="BT1000838470.1.2.4" linecode="2X1010AX2BT1_3" length="0.01550000" units=km