! DU_7_CargasBT_391_MTQ_RMTQ1302
New "Load.BT_92cdd4c9a8b4c4d775f98dd265c85bc8348fe7a40c5ec2cacd494a9475f99158_M1" bus1="BT1001929026.2.3.4" phases=1 conn=Delta model=2 kv=0.22 kw=15.02052 pf=0.92 daily="IND-TIPO6_DU" status=variable vmaxpu=1.5 vminpu=0.92
New "Load.BT_92cdd4c9a8b4c4d775f98dd265c85bc8348fe7a40c5ec2cacd494a9475f99158_M2" bus1="BT1001929026.2.3.4" phases=1 conn=Delta model=3 kv=0.22 kw=15.02052 pf=0.92 daily="IND-TIPO6_DU" status=variable vmaxpu=1.5 vminpu=0.92
New "Load.BT_141699bdef295dfd6eb6ff30f29ffeb31b6048b3c794c7c8c39b9258ed90cdbc_M1" bus1="BT1001878179.1.2.3.4" phases=3 conn=Delta model=2 kv=0.22 kw=12.99645 pf=0.92 daily="IND-TIPO6_DU" status=variable vmaxpu=1.5 vminpu=0.92
New "Load.BT_141699bdef295dfd6eb6ff30f29ffeb31b6048b3c794c7c8c39b9258ed90cdbc_M2" bus1="BT1001878179.1.2.3.4" phases=3 conn=Delta model=3 kv=0.22 kw=12.99645 pf=0.92 daily="IND-TIPO6_DU" status=variable vmaxpu=1.5 vminpu=0.92
New "Load.BT_c785caa11321b5f3755f6f121166b0b7f2e4997bf392aa8d32469984410cdf49_M1" bus1="BT1001887706.1.2.3.4" phases=3 conn=Delta model=2 kv=0.22 kw=11.74494 pf=0.92 daily="IND-TIPO6_DU" status=variable vmaxpu=1.5 vminpu=0.92
New "Load.BT_c785caa11321b5f3755f6f121166b0b7f2e4997bf392aa8d32469984410cdf49_M2" bus1="BT1001887706.1.2.3.4" phases=3 conn=Delta model=3 kv=0.22 kw=11.74494 pf=0.92 daily="IND-TIPO6_DU" status=variable vmaxpu=1.5 vminpu=0.92
New "Load.BT_288c0b94723b83328ad03116b7c3dfa3b742ed0941e4c9a8744cd496a2d45d93_M1" bus1="BT1001906719.1.2.3.4" phases=3 conn=Delta model=2 kv=0.22 kw=10.33699 pf=0.92 daily="IND-TIPO6_DU" status=variable vmaxpu=1.5 vminpu=0.92
New "Load.BT_288c0b94723b83328ad03116b7c3dfa3b742ed0941e4c9a8744cd496a2d45d93_M2" bus1="BT1001906719.1.2.3.4" phases=3 conn=Delta model=3 kv=0.22 kw=10.33699 pf=0.92 daily="IND-TIPO6_DU" status=variable vmaxpu=1.5 vminpu=0.92
New "Load.BT_f2440752a567901639a2f52c76159def6c8c7e5dc36e4c0dfd46bdefc9e38951_M1" bus1="BT1001119542.1.2.3.4" phases=3 conn=Delta model=2 kv=0.22 kw=10.01208 pf=0.92 daily="IND-TIPO6_DU" status=variable vmaxpu=1.5 vminpu=0.92
New "Load.BT_f2440752a567901639a2f52c76159def6c8c7e5dc36e4c0dfd46bdefc9e38951_M2" bus1="BT1001119542.1.2.3.4" phases=3 conn=Delta model=3 kv=0.22 kw=10.01208 pf=0.92 daily="IND-TIPO6_DU" status=variable vmaxpu=1.5 vminpu=0.92
New "Load.BT_3bfc200778b7e4cd80ff3930bc230c2f91aba1fa515d4c600ecbfbab70ce1cc9_M1" bus1="BT1000956375.1.2.3.4" phases=3 conn=Delta model=2 kv=0.22 kw=10.01208 pf=0.92 daily="IND-TIPO6_DU" status=variable vmaxpu=1.5 vminpu=0.92
New "Load.BT_3bfc200778b7e4cd80ff3930bc230c2f91aba1fa515d4c600ecbfbab70ce1cc9_M2" bus1="BT1000956375.1.2.3.4" phases=3 conn=Delta model=3 kv=0.22 kw=10.01208 pf=0.92 daily="IND-TIPO6_DU" status=variable vmaxpu=1.5 vminpu=0.92
New "Load.BT_cbdeeabe42095debf76426b1a02e6d09547ce56b8d6cc5cc452ac11e4f5e683f_M1" bus1="BT1002142540.1.2.4" phases=1 conn=Delta model=2 kv=0.22 kw=8.85684 pf=0.92 daily="IND-TIPO6_DU" status=variable vmaxpu=1.5 vminpu=0.92
New "Load.BT_cbdeeabe42095debf76426b1a02e6d09547ce56b8d6cc5cc452ac11e4f5e683f_M2" bus1="BT1002142540.1.2.4" phases=1 conn=Delta model=3 kv=0.22 kw=8.85684 pf=0.92 daily="IND-TIPO6_DU" status=variable vmaxpu=1.5 vminpu=0.92
New "Load.BT_b6a612ce85a0ef137fb5b25e6280b7719ae6a854ea7b937a111ab536af6330a6_M1" bus1="BT1002158733.1.2.3.4" phases=3 conn=Delta model=2 kv=0.22 kw=8.27922 pf=0.92 daily="IND-TIPO6_DU" status=variable vmaxpu=1.5 vminpu=0.92
New "Load.BT_b6a612ce85a0ef137fb5b25e6280b7719ae6a854ea7b937a111ab536af6330a6_M2" bus1="BT1002158733.1.2.3.4" phases=3 conn=Delta model=3 kv=0.22 kw=8.27922 pf=0.92 daily="IND-TIPO6_DU" status=variable vmaxpu=1.5 vminpu=0.92
New "Load.BT_18e9f8d828af73cf779e35a57d13842f9d910d7771dc6f4d77fb9b4a562ed04e_M1" bus1="BT1000894031.1.2.3.4" phases=3 conn=Delta model=2 kv=0.22 kw=7.84239 pf=0.92 daily="IND-TIPO6_DU" status=variable vmaxpu=1.5 vminpu=0.92
New "Load.BT_18e9f8d828af73cf779e35a57d13842f9d910d7771dc6f4d77fb9b4a562ed04e_M2" bus1="BT1000894031.1.2.3.4" phases=3 conn=Delta model=3 kv=0.22 kw=7.84239 pf=0.92 daily="IND-TIPO6_DU" status=variable vmaxpu=1.5 vminpu=0.92
New "Load.BT_9aec20d0c69977160eaddac1cb9f3c0d981ddff8d447ccdbd19e1fa920f48c50_M1" bus1="BT1001799407.1.2.4" phases=1 conn=Delta model=2 kv=0.24 kw=6.82369 pf=0.92 daily="RUR-TIPO1_DU" status=variable vmaxpu=1.5 vminpu=0.92
New "Load.BT_9aec20d0c69977160eaddac1cb9f3c0d981ddff8d447ccdbd19e1fa920f48c50_M2" bus1="BT1001799407.1.2.4" phases=1 conn=Delta model=3 kv=0.24 kw=6.82369 pf=0.92 daily="RUR-TIPO1_DU" status=variable vmaxpu=1.5 vminpu=0.92
New "Load.BT_42216eeeb5ad384e87cd3d3c7be077c534351ec53dc6b7365a58aada50e45e0f_M1" bus1="BT1000870584.1.2.3.4" phases=3 conn=Delta model=2 kv=0.22 kw=5.96633 pf=0.92 daily="IND-TIPO6_DU" status=variable vmaxpu=1.5 vminpu=0.92
New "Load.BT_42216eeeb5ad384e87cd3d3c7be077c534351ec53dc6b7365a58aada50e45e0f_M2" bus1="BT1000870584.1.2.3.4" phases=3 conn=Delta model=3 kv=0.22 kw=5.96633 pf=0.92 daily="IND-TIPO6_DU" status=variable vmaxpu=1.5 vminpu=0.92
New "Load.BT_089214e7b5eee61ace48de076aaf88fabbbda18ccf85c4335e138e899dd5be2f_M1" bus1="BT1000870669.1.2.3.4" phases=3 conn=Delta model=2 kv=0.22 kw=5.87247 pf=0.92 daily="IND-TIPO6_DU" status=variable vmaxpu=1.5 vminpu=0.92
New "Load.BT_089214e7b5eee61ace48de076aaf88fabbbda18ccf85c4335e138e899dd5be2f_M2" bus1="BT1000870669.1.2.3.4" phases=3 conn=Delta model=3 kv=0.22 kw=5.87247 pf=0.92 daily="IND-TIPO6_DU" status=variable vmaxpu=1.5 vminpu=0.92
New "Load.BT_bc9540ee1a591e406a47a5ae8a7be02e7890e59187cad834ce8d87847bde170b_M1" bus1="BT1000953852.1.2.3.4" phases=3 conn=Delta model=2 kv=0.22 kw=5.63179 pf=0.92 daily="IND-TIPO6_DU" status=variable vmaxpu=1.5 vminpu=0.92
New "Load.BT_bc9540ee1a591e406a47a5ae8a7be02e7890e59187cad834ce8d87847bde170b_M2" bus1="BT1000953852.1.2.3.4" phases=3 conn=Delta model=3 kv=0.22 kw=5.63179 pf=0.92 daily="IND-TIPO6_DU" status=variable vmaxpu=1.5 vminpu=0.92
New "Load.BT_9c4040229ae3289d8c9edca59a883797f74578f8d43674879497f27a7390e8e6_M1" bus1="BT1000888481.3.1.4" phases=1 conn=Delta model=2 kv=0.22 kw=5.31410 pf=0.92 daily="IND-TIPO6_DU" status=variable vmaxpu=1.5 vminpu=0.92
New "Load.BT_9c4040229ae3289d8c9edca59a883797f74578f8d43674879497f27a7390e8e6_M2" bus1="BT1000888481.3.1.4" phases=1 conn=Delta model=3 kv=0.22 kw=5.31410 pf=0.92 daily="IND-TIPO6_DU" status=variable vmaxpu=1.5 vminpu=0.92
New "Load.BT_dd4497984fc0f6882fb2b656dbcb36c51fcd6a454237018ebc8e66434e734935_M1" bus1="BT1001241022.1.2.4" phases=1 conn=Delta model=2 kv=0.22 kw=4.89533 pf=0.92 daily="IND-TIPO6_DU" status=variable vmaxpu=1.5 vminpu=0.92
New "Load.BT_dd4497984fc0f6882fb2b656dbcb36c51fcd6a454237018ebc8e66434e734935_M2" bus1="BT1001241022.1.2.4" phases=1 conn=Delta model=3 kv=0.22 kw=4.89533 pf=0.92 daily="IND-TIPO6_DU" status=variable vmaxpu=1.5 vminpu=0.92
New "Load.BT_262e03a2f346489fa284fcd512bcddd6b566d07bc55cf8cb87aa28d1e604d22e_M1" bus1="BT1002165321.1.2.3.4" phases=3 conn=Delta model=2 kv=0.22 kw=4.61855 pf=0.92 daily="IND-TIPO6_DU" status=variable vmaxpu=1.5 vminpu=0.92
New "Load.BT_262e03a2f346489fa284fcd512bcddd6b566d07bc55cf8cb87aa28d1e604d22e_M2" bus1="BT1002165321.1.2.3.4" phases=3 conn=Delta model=3 kv=0.22 kw=4.61855 pf=0.92 daily="IND-TIPO6_DU" status=variable vmaxpu=1.5 vminpu=0.92
New "Load.BT_25d6fc61f0266d7af9b6c15e401d0c3c4515d56ebf3cf3b79572ec5682bf1d30_M1" bus1="BT1000939653.1.2.3.4" phases=3 conn=Delta model=2 kv=0.22 kw=4.34418 pf=0.92 daily="IND-TIPO6_DU" status=variable vmaxpu=1.5 vminpu=0.92
New "Load.BT_25d6fc61f0266d7af9b6c15e401d0c3c4515d56ebf3cf3b79572ec5682bf1d30_M2" bus1="BT1000939653.1.2.3.4" phases=3 conn=Delta model=3 kv=0.22 kw=4.34418 pf=0.92 daily="IND-TIPO6_DU" status=variable vmaxpu=1.5 vminpu=0.92
New "Load.BT_8632c4997c3f78a77026ab6d34fd36ca974bdd3fa9d02f77ea79e808d73826ce_M1" bus1="BT1002120292.1.2.3.4" phases=3 conn=Delta model=2 kv=0.22 kw=4.15405 pf=0.92 daily="IND-TIPO6_DU" status=variable vmaxpu=1.5 vminpu=0.92
New "Load.BT_8632c4997c3f78a77026ab6d34fd36ca974bdd3fa9d02f77ea79e808d73826ce_M2" bus1="BT1002120292.1.2.3.4" phases=3 conn=Delta model=3 kv=0.22 kw=4.15405 pf=0.92 daily="IND-TIPO6_DU" status=variable vmaxpu=1.5 vminpu=0.92
New "Load.BT_0e128a7ac2ef3d2cdef312596793af596eb863c03bdb0ae570d927c94d809767_M1" bus1="BT1000893715.1.2.3.4" phases=3 conn=Delta model=2 kv=0.22 kw=4.04334 pf=0.92 daily="IND-TIPO6_DU" status=variable vmaxpu=1.5 vminpu=0.92
New "Load.BT_0e128a7ac2ef3d2cdef312596793af596eb863c03bdb0ae570d927c94d809767_M2" bus1="BT1000893715.1.2.3.4" phases=3 conn=Delta model=3 kv=0.22 kw=4.04334 pf=0.92 daily="IND-TIPO6_DU" status=variable vmaxpu=1.5 vminpu=0.92
New "Load.BT_bd6a7fd2a2bfab9f82e96f28bfcfd9c0febae5933e431c9245e5627ac7a69dc2_M1" bus1="BT1001119583.1.2.3.4" phases=3 conn=Delta model=2 kv=0.22 kw=3.99039 pf=0.92 daily="IND-TIPO6_DU" status=variable vmaxpu=1.5 vminpu=0.92
New "Load.BT_bd6a7fd2a2bfab9f82e96f28bfcfd9c0febae5933e431c9245e5627ac7a69dc2_M2" bus1="BT1001119583.1.2.3.4" phases=3 conn=Delta model=3 kv=0.22 kw=3.99039 pf=0.92 daily="IND-TIPO6_DU" status=variable vmaxpu=1.5 vminpu=0.92
New "Load.BT_ff4e653cb45e6146d685274b1e03fdc2715daf7b9ddc57abb0455e8efc88371c_M1" bus1="BT1002114559.1.2.3.4" phases=3 conn=Delta model=2 kv=0.22 kw=3.94707 pf=0.92 daily="IND-TIPO6_DU" status=variable vmaxpu=1.5 vminpu=0.92
New "Load.BT_ff4e653cb45e6146d685274b1e03fdc2715daf7b9ddc57abb0455e8efc88371c_M2" bus1="BT1002114559.1.2.3.4" phases=3 conn=Delta model=3 kv=0.22 kw=3.94707 pf=0.92 daily="IND-TIPO6_DU" status=variable vmaxpu=1.5 vminpu=0.92
New "Load.BT_efd193365847fb8f8b7899cd21d83ce1c3ac01344843725fa01c1163cd1c8c71_M1" bus1="BT1001119877.1.2.3.4" phases=3 conn=Delta model=2 kv=0.22 kw=3.87104 pf=0.92 daily="IND-TIPO10_DU" status=variable vmaxpu=1.5 vminpu=0.92
New "Load.BT_efd193365847fb8f8b7899cd21d83ce1c3ac01344843725fa01c1163cd1c8c71_M2" bus1="BT1001119877.1.2.3.4" phases=3 conn=Delta model=3 kv=0.22 kw=3.87104 pf=0.92 daily="IND-TIPO10_DU" status=variable vmaxpu=1.5 vminpu=0.92
New "Load.BT_bd75ef83a39cff7e0ebd96cf29dbb3e182621939219d5cde7226bd35fa8d948e_M1" bus1="BT1002156218.1.2.3.4" phases=3 conn=Delta model=2 kv=0.22 kw=3.15022 pf=0.92 daily="RES-TIPO4_DU" status=variable vmaxpu=1.5 vminpu=0.92
New "Load.BT_bd75ef83a39cff7e0ebd96cf29dbb3e182621939219d5cde7226bd35fa8d948e_M2" bus1="BT1002156218.1.2.3.4" phases=3 conn=Delta model=3 kv=0.22 kw=3.15022 pf=0.92 daily="RES-TIPO4_DU" status=variable vmaxpu=1.5 vminpu=0.92
New "Load.BT_b5629468f34c19a05465365783a093ad07a2e3dacc96eba2a81753dc0242f8db_M1" bus1="BT1000869888.1.2.3.4" phases=3 conn=Delta model=2 kv=0.22 kw=3.86644 pf=0.92 daily="IND-TIPO6_DU" status=variable vmaxpu=1.5 vminpu=0.92
New "Load.BT_b5629468f34c19a05465365783a093ad07a2e3dacc96eba2a81753dc0242f8db_M2" bus1="BT1000869888.1.2.3.4" phases=3 conn=Delta model=3 kv=0.22 kw=3.86644 pf=0.92 daily="IND-TIPO6_DU" status=variable vmaxpu=1.5 vminpu=0.92
New "Load.BT_437abd82e439c0158d7600be00cf57edb1687481dd76ff80359a9635048de9a4_M1" bus1="BT1001863530.1.2.3.4" phases=3 conn=Delta model=2 kv=0.22 kw=4.27439 pf=0.92 daily="IND-TIPO8_DU" status=variable vmaxpu=1.5 vminpu=0.92
New "Load.BT_437abd82e439c0158d7600be00cf57edb1687481dd76ff80359a9635048de9a4_M2" bus1="BT1001863530.1.2.3.4" phases=3 conn=Delta model=3 kv=0.22 kw=4.27439 pf=0.92 daily="IND-TIPO8_DU" status=variable vmaxpu=1.5 vminpu=0.92
New "Load.BT_109f189b9436c0f7b63faff1e7371a6f5d8fbfd01c920ee2caeeb1bc41a9ee89_M1" bus1="BT1000893676.1.2.4" phases=1 conn=Delta model=2 kv=0.24 kw=3.61734 pf=0.92 daily="IND-TIPO6_DU" status=variable vmaxpu=1.5 vminpu=0.92
New "Load.BT_109f189b9436c0f7b63faff1e7371a6f5d8fbfd01c920ee2caeeb1bc41a9ee89_M2" bus1="BT1000893676.1.2.4" phases=1 conn=Delta model=3 kv=0.24 kw=3.61734 pf=0.92 daily="IND-TIPO6_DU" status=variable vmaxpu=1.5 vminpu=0.92
New "Load.BT_2f9bcfd7c59e634a97f2e0567e0ffbd4daa2c99baa05b950fd290c79c39826ce_M1" bus1="BT1001982315.1.2.3.4" phases=3 conn=Delta model=2 kv=0.22 kw=3.46572 pf=0.92 daily="IND-TIPO6_DU" status=variable vmaxpu=1.5 vminpu=0.92
New "Load.BT_2f9bcfd7c59e634a97f2e0567e0ffbd4daa2c99baa05b950fd290c79c39826ce_M2" bus1="BT1001982315.1.2.3.4" phases=3 conn=Delta model=3 kv=0.22 kw=3.46572 pf=0.92 daily="IND-TIPO6_DU" status=variable vmaxpu=1.5 vminpu=0.92
New "Load.BT_154861dbd6c14b9265ec01724bc32dba3a6dbe041134b1c431f86db399c309c6_M1" bus1="BT1000953667.1.2.3.4" phases=3 conn=Delta model=2 kv=0.22 kw=3.41758 pf=0.92 daily="IND-TIPO6_DU" status=variable vmaxpu=1.5 vminpu=0.92
New "Load.BT_154861dbd6c14b9265ec01724bc32dba3a6dbe041134b1c431f86db399c309c6_M2" bus1="BT1000953667.1.2.3.4" phases=3 conn=Delta model=3 kv=0.22 kw=3.41758 pf=0.92 daily="IND-TIPO6_DU" status=variable vmaxpu=1.5 vminpu=0.92
New "Load.BT_d0516085da617f60d18b6d18a1993413430a29256c3ab38522e744a2e2d4a223_M1" bus1="BT1001124292.1.2.3.4" phases=3 conn=Delta model=2 kv=0.22 kw=3.27318 pf=0.92 daily="IND-TIPO6_DU" status=variable vmaxpu=1.5 vminpu=0.92
New "Load.BT_d0516085da617f60d18b6d18a1993413430a29256c3ab38522e744a2e2d4a223_M2" bus1="BT1001124292.1.2.3.4" phases=3 conn=Delta model=3 kv=0.22 kw=3.27318 pf=0.92 daily="IND-TIPO6_DU" status=variable vmaxpu=1.5 vminpu=0.92
New "Load.BT_63d1d08642e3211616df5251f0910b36f815ff1f29b21a1b6f26f86c0f713371_M1" bus1="BT1000953803.1.2.4" phases=1 conn=Delta model=2 kv=0.22 kw=2.69278 pf=0.92 daily="RUR-TIPO6_DU" status=variable vmaxpu=1.5 vminpu=0.92
New "Load.BT_63d1d08642e3211616df5251f0910b36f815ff1f29b21a1b6f26f86c0f713371_M2" bus1="BT1000953803.1.2.4" phases=1 conn=Delta model=3 kv=0.22 kw=2.69278 pf=0.92 daily="RUR-TIPO6_DU" status=variable vmaxpu=1.5 vminpu=0.92
New "Load.BT_6ffbfad48b9cafe38178274825c7a9460c79f1d1fb42254d299fa3be636efc54_M1" bus1="BT1000899120.3.1.4" phases=1 conn=Delta model=2 kv=0.22 kw=3.01686 pf=0.92 daily="IND-TIPO6_DU" status=variable vmaxpu=1.5 vminpu=0.92
New "Load.BT_6ffbfad48b9cafe38178274825c7a9460c79f1d1fb42254d299fa3be636efc54_M2" bus1="BT1000899120.3.1.4" phases=1 conn=Delta model=3 kv=0.22 kw=3.01686 pf=0.92 daily="IND-TIPO6_DU" status=variable vmaxpu=1.5 vminpu=0.92
New "Load.BT_d3715d9c436272eb4e91bd90e09cd4369f793d278e0ddeaec9bbe45b2fc5aa01_M1" bus1="BT1001974245.1.2.3.4" phases=3 conn=Delta model=2 kv=0.22 kw=2.41659 pf=0.92 daily="RES-TIPO4_DU" status=variable vmaxpu=1.5 vminpu=0.92
New "Load.BT_d3715d9c436272eb4e91bd90e09cd4369f793d278e0ddeaec9bbe45b2fc5aa01_M2" bus1="BT1001974245.1.2.3.4" phases=3 conn=Delta model=3 kv=0.22 kw=2.41659 pf=0.92 daily="RES-TIPO4_DU" status=variable vmaxpu=1.5 vminpu=0.92
New "Load.BT_f2ebe6a7a43b9fded7a8c76ff55c8928eb7eaf6519c6122458d81a915372499f_M1" bus1="BT1000944997.1.2.4" phases=1 conn=Delta model=2 kv=0.22 kw=2.66378 pf=0.92 daily="IND-TIPO5_DU" status=variable vmaxpu=1.5 vminpu=0.92
New "Load.BT_f2ebe6a7a43b9fded7a8c76ff55c8928eb7eaf6519c6122458d81a915372499f_M2" bus1="BT1000944997.1.2.4" phases=1 conn=Delta model=3 kv=0.22 kw=2.66378 pf=0.92 daily="IND-TIPO5_DU" status=variable vmaxpu=1.5 vminpu=0.92
New "Load.BT_03b71ec2340c556db1f7004c60fcb5189d412f2567ce6fd7ee15a38e35491693_M1" bus1="BT1001255008.3.1.4" phases=1 conn=Delta model=2 kv=0.22 kw=2.95188 pf=0.92 daily="IND-TIPO6_DU" status=variable vmaxpu=1.5 vminpu=0.92
New "Load.BT_03b71ec2340c556db1f7004c60fcb5189d412f2567ce6fd7ee15a38e35491693_M2" bus1="BT1001255008.3.1.4" phases=1 conn=Delta model=3 kv=0.22 kw=2.95188 pf=0.92 daily="IND-TIPO6_DU" status=variable vmaxpu=1.5 vminpu=0.92
New "Load.BT_a5fd7507407075a1da06971a6e2417dce366ede6e186edf970e19e1bb5d1b5c5_M1" bus1="BT1001875382.1.2.3.4" phases=3 conn=Delta model=2 kv=0.22 kw=5.28630 pf=0.92 daily="COM-TIPO10_DU" status=variable vmaxpu=1.5 vminpu=0.92
New "Load.BT_a5fd7507407075a1da06971a6e2417dce366ede6e186edf970e19e1bb5d1b5c5_M2" bus1="BT1001875382.1.2.3.4" phases=3 conn=Delta model=3 kv=0.22 kw=5.28630 pf=0.92 daily="COM-TIPO10_DU" status=variable vmaxpu=1.5 vminpu=0.92
New "Load.BT_658d77562c244cd07ea83c244dc65168f9c25da8a2674ea05f01e9a34d9ca72b_M1" bus1="BT1002196941.1.2.3.4" phases=3 conn=Delta model=2 kv=0.22 kw=2.77859 pf=0.92 daily="IND-TIPO6_DU" status=variable vmaxpu=1.5 vminpu=0.92
New "Load.BT_658d77562c244cd07ea83c244dc65168f9c25da8a2674ea05f01e9a34d9ca72b_M2" bus1="BT1002196941.1.2.3.4" phases=3 conn=Delta model=3 kv=0.22 kw=2.77859 pf=0.92 daily="IND-TIPO6_DU" status=variable vmaxpu=1.5 vminpu=0.92
New "Load.BT_68524e4b29bb6a9b726b3be81877b242fe9f1f4883b963f6d2dbc1a3b01acb42_M1" bus1="BT1001486122.1.2.3.4" phases=3 conn=Delta model=2 kv=0.22 kw=2.74369 pf=0.92 daily="IND-TIPO6_DU" status=variable vmaxpu=1.5 vminpu=0.92
New "Load.BT_68524e4b29bb6a9b726b3be81877b242fe9f1f4883b963f6d2dbc1a3b01acb42_M2" bus1="BT1001486122.1.2.3.4" phases=3 conn=Delta model=3 kv=0.22 kw=2.74369 pf=0.92 daily="IND-TIPO6_DU" status=variable vmaxpu=1.5 vminpu=0.92
New "Load.BT_835410acc843f3740285742180b96a6d9df85abe3f319e24670df20758820231_M1" bus1="BT1001557741.1.2.3.4" phases=3 conn=Delta model=2 kv=0.22 kw=2.73527 pf=0.92 daily="IND-TIPO6_DU" status=variable vmaxpu=1.5 vminpu=0.92
New "Load.BT_835410acc843f3740285742180b96a6d9df85abe3f319e24670df20758820231_M2" bus1="BT1001557741.1.2.3.4" phases=3 conn=Delta model=3 kv=0.22 kw=2.73527 pf=0.92 daily="IND-TIPO6_DU" status=variable vmaxpu=1.5 vminpu=0.92
New "Load.BT_6b47349e34f7e6901950d48f4bd3f9c64d4342a12cdb371ec02a0d3271fe21aa_M1" bus1="BT1001857596.1.2.3.4" phases=3 conn=Delta model=2 kv=0.22 kw=2.68593 pf=0.92 daily="IND-TIPO6_DU" status=variable vmaxpu=1.5 vminpu=0.92
New "Load.BT_6b47349e34f7e6901950d48f4bd3f9c64d4342a12cdb371ec02a0d3271fe21aa_M2" bus1="BT1001857596.1.2.3.4" phases=3 conn=Delta model=3 kv=0.22 kw=2.68593 pf=0.92 daily="IND-TIPO6_DU" status=variable vmaxpu=1.5 vminpu=0.92
New "Load.BT_57a35ccc44bf88502f7c02027f54f77286454e2c08624a9af0708089467b90c6_M1" bus1="BT1002071117.1.2.3.4" phases=3 conn=Delta model=2 kv=0.22 kw=2.67029 pf=0.92 daily="IND-TIPO6_DU" status=variable vmaxpu=1.5 vminpu=0.92
New "Load.BT_57a35ccc44bf88502f7c02027f54f77286454e2c08624a9af0708089467b90c6_M2" bus1="BT1002071117.1.2.3.4" phases=3 conn=Delta model=3 kv=0.22 kw=2.67029 pf=0.92 daily="IND-TIPO6_DU" status=variable vmaxpu=1.5 vminpu=0.92
New "Load.BT_0817b82948705dda7fce903a4cfa7edd2866dc4987a14e65108941a9eaf3bdfd_M1" bus1="BT1000944942.1.2.4" phases=1 conn=Delta model=2 kv=0.22 kw=2.65585 pf=0.92 daily="IND-TIPO6_DU" status=variable vmaxpu=1.5 vminpu=0.92
New "Load.BT_0817b82948705dda7fce903a4cfa7edd2866dc4987a14e65108941a9eaf3bdfd_M2" bus1="BT1000944942.1.2.4" phases=1 conn=Delta model=3 kv=0.22 kw=2.65585 pf=0.92 daily="IND-TIPO6_DU" status=variable vmaxpu=1.5 vminpu=0.92
New "Load.BT_7ab717c1abc173b38b707cf418d2d75bf751b2bcc952f48b523f22bf7b29348e_M1" bus1="BT1000948209.1.2.4" phases=1 conn=Delta model=2 kv=0.22 kw=2.62937 pf=0.92 daily="IND-TIPO6_DU" status=variable vmaxpu=1.5 vminpu=0.92
New "Load.BT_7ab717c1abc173b38b707cf418d2d75bf751b2bcc952f48b523f22bf7b29348e_M2" bus1="BT1000948209.1.2.4" phases=1 conn=Delta model=3 kv=0.22 kw=2.62937 pf=0.92 daily="IND-TIPO6_DU" status=variable vmaxpu=1.5 vminpu=0.92
New "Load.BT_d6d49cd9e52a897a2214620381bf5294901024c288095b97d48fea6303ec94a9_M1" bus1="BT1000948281.1.2.3.4" phases=3 conn=Delta model=2 kv=0.22 kw=2.60290 pf=0.92 daily="IND-TIPO6_DU" status=variable vmaxpu=1.5 vminpu=0.92
New "Load.BT_d6d49cd9e52a897a2214620381bf5294901024c288095b97d48fea6303ec94a9_M2" bus1="BT1000948281.1.2.3.4" phases=3 conn=Delta model=3 kv=0.22 kw=2.60290 pf=0.92 daily="IND-TIPO6_DU" status=variable vmaxpu=1.5 vminpu=0.92
New "Load.BT_bb48b82b69ee213974d0b85f3ae47fe1c8063e183cb0bd6bec008688b2b30c80_M1" bus1="BT1002208237.1.2.3.4" phases=3 conn=Delta model=2 kv=0.22 kw=2.43563 pf=0.92 daily="IND-TIPO6_DU" status=variable vmaxpu=1.5 vminpu=0.92
New "Load.BT_bb48b82b69ee213974d0b85f3ae47fe1c8063e183cb0bd6bec008688b2b30c80_M2" bus1="BT1002208237.1.2.3.4" phases=3 conn=Delta model=3 kv=0.22 kw=2.43563 pf=0.92 daily="IND-TIPO6_DU" status=variable vmaxpu=1.5 vminpu=0.92
New "Load.BT_58786ac36876125d3cca88ade6cff3f83a2326cc65b86835d2efe157ce7dc8d7_M1" bus1="BT1001984117.1.2.3.4" phases=3 conn=Delta model=2 kv=0.22 kw=2.41156 pf=0.92 daily="IND-TIPO6_DU" status=variable vmaxpu=1.5 vminpu=0.92
New "Load.BT_58786ac36876125d3cca88ade6cff3f83a2326cc65b86835d2efe157ce7dc8d7_M2" bus1="BT1001984117.1.2.3.4" phases=3 conn=Delta model=3 kv=0.22 kw=2.41156 pf=0.92 daily="IND-TIPO6_DU" status=variable vmaxpu=1.5 vminpu=0.92
New "Load.BT_e7fc1a09c487aec135603c2995225ea270767f9615a96a85f2f43d5a4058310b_M1" bus1="BT1002138128.1.2.3.4" phases=3 conn=Delta model=2 kv=0.22 kw=2.37426 pf=0.92 daily="IND-TIPO6_DU" status=variable vmaxpu=1.5 vminpu=0.92
New "Load.BT_e7fc1a09c487aec135603c2995225ea270767f9615a96a85f2f43d5a4058310b_M2" bus1="BT1002138128.1.2.3.4" phases=3 conn=Delta model=3 kv=0.22 kw=2.37426 pf=0.92 daily="IND-TIPO6_DU" status=variable vmaxpu=1.5 vminpu=0.92
New "Load.BT_8cede22a318342b5d4e2391229cb4ec99b898d19013d522957e68c22778c759e_M1" bus1="BT1001119853.1.2.3.4" phases=3 conn=Delta model=2 kv=0.22 kw=2.36343 pf=0.92 daily="IND-TIPO6_DU" status=variable vmaxpu=1.5 vminpu=0.92
New "Load.BT_8cede22a318342b5d4e2391229cb4ec99b898d19013d522957e68c22778c759e_M2" bus1="BT1001119853.1.2.3.4" phases=3 conn=Delta model=3 kv=0.22 kw=2.36343 pf=0.92 daily="IND-TIPO6_DU" status=variable vmaxpu=1.5 vminpu=0.92
New "Load.BT_2c534b34a9b8157a95a7224fb49620a7fe10471c4ba66a00ffd25c82a4cf9da7_M1" bus1="BT1000944981.1.2.3.4" phases=3 conn=Delta model=2 kv=0.22 kw=2.34899 pf=0.92 daily="IND-TIPO6_DU" status=variable vmaxpu=1.5 vminpu=0.92
New "Load.BT_2c534b34a9b8157a95a7224fb49620a7fe10471c4ba66a00ffd25c82a4cf9da7_M2" bus1="BT1000944981.1.2.3.4" phases=3 conn=Delta model=3 kv=0.22 kw=2.34899 pf=0.92 daily="IND-TIPO6_DU" status=variable vmaxpu=1.5 vminpu=0.92
New "Load.BT_232c84f9bfd50bdb7ef8877276895fae492eb98cedc15e4a89f2232c41862332_M1" bus1="BT1001119873.1.2.3.4" phases=3 conn=Delta model=2 kv=0.22 kw=2.30807 pf=0.92 daily="IND-TIPO6_DU" status=variable vmaxpu=1.5 vminpu=0.92
New "Load.BT_232c84f9bfd50bdb7ef8877276895fae492eb98cedc15e4a89f2232c41862332_M2" bus1="BT1001119873.1.2.3.4" phases=3 conn=Delta model=3 kv=0.22 kw=2.30807 pf=0.92 daily="IND-TIPO6_DU" status=variable vmaxpu=1.5 vminpu=0.92
New "Load.BT_644f493884578519fe1d2364af218196d22b2cb1dcb3c97dc1953ef96c4239f8_M1" bus1="BT1002173789.1.2.3.4" phases=3 conn=Delta model=2 kv=0.22 kw=2.26234 pf=0.92 daily="IND-TIPO6_DU" status=variable vmaxpu=1.5 vminpu=0.92
New "Load.BT_644f493884578519fe1d2364af218196d22b2cb1dcb3c97dc1953ef96c4239f8_M2" bus1="BT1002173789.1.2.3.4" phases=3 conn=Delta model=3 kv=0.22 kw=2.26234 pf=0.92 daily="IND-TIPO6_DU" status=variable vmaxpu=1.5 vminpu=0.92
New "Load.BT_445dd61dc0d16083563312555c58c09f75dd1a74a336f8f54c2d22e672287db5_M1" bus1="BT1002222472.1.2.4" phases=1 conn=Delta model=2 kv=0.22 kw=2.23948 pf=0.92 daily="IND-TIPO6_DU" status=variable vmaxpu=1.5 vminpu=0.92
New "Load.BT_445dd61dc0d16083563312555c58c09f75dd1a74a336f8f54c2d22e672287db5_M2" bus1="BT1002222472.1.2.4" phases=1 conn=Delta model=3 kv=0.22 kw=2.23948 pf=0.92 daily="IND-TIPO6_DU" status=variable vmaxpu=1.5 vminpu=0.92
New "Load.BT_8e113b0af758cf16eb05d608adccac48d5add105a28dca23d5397c709146fb3d_M1" bus1="BT1002118083.1.2.3.4" phases=3 conn=Delta model=2 kv=0.22 kw=2.21421 pf=0.92 daily="IND-TIPO6_DU" status=variable vmaxpu=1.5 vminpu=0.92
New "Load.BT_8e113b0af758cf16eb05d608adccac48d5add105a28dca23d5397c709146fb3d_M2" bus1="BT1002118083.1.2.3.4" phases=3 conn=Delta model=3 kv=0.22 kw=2.21421 pf=0.92 daily="IND-TIPO6_DU" status=variable vmaxpu=1.5 vminpu=0.92
New "Load.BT_2d7180ff5cd1db584ecb371dd41654fe0bf58f7bca7ba581193be7f656df9e2c_M1" bus1="BT1001129708.1.2.3.4" phases=3 conn=Delta model=2 kv=0.22 kw=2.14562 pf=0.92 daily="IND-TIPO6_DU" status=variable vmaxpu=1.5 vminpu=0.92
New "Load.BT_2d7180ff5cd1db584ecb371dd41654fe0bf58f7bca7ba581193be7f656df9e2c_M2" bus1="BT1001129708.1.2.3.4" phases=3 conn=Delta model=3 kv=0.22 kw=2.14562 pf=0.92 daily="IND-TIPO6_DU" status=variable vmaxpu=1.5 vminpu=0.92
New "Load.BT_32ca79f33d39584a5540d9eba99b23f813eee03c8fac349928bb3f4de4bfbb59_M1" bus1="BT1000949581.1.2.3.4" phases=3 conn=Delta model=2 kv=0.22 kw=2.46639 pf=0.92 daily="RUR-TIPO7_DU" status=variable vmaxpu=1.5 vminpu=0.92
New "Load.BT_32ca79f33d39584a5540d9eba99b23f813eee03c8fac349928bb3f4de4bfbb59_M2" bus1="BT1000949581.1.2.3.4" phases=3 conn=Delta model=3 kv=0.22 kw=2.46639 pf=0.92 daily="RUR-TIPO7_DU" status=variable vmaxpu=1.5 vminpu=0.92
New "Load.BT_ccf2dce3c93d53500ab46e842df7d619d8d6b2589a9c85b01aae98f8941c7485_M1" bus1="BT1002194838.1.2.3.4" phases=3 conn=Delta model=2 kv=0.22 kw=2.11914 pf=0.92 daily="IND-TIPO6_DU" status=variable vmaxpu=1.5 vminpu=0.92
New "Load.BT_ccf2dce3c93d53500ab46e842df7d619d8d6b2589a9c85b01aae98f8941c7485_M2" bus1="BT1002194838.1.2.3.4" phases=3 conn=Delta model=3 kv=0.22 kw=2.11914 pf=0.92 daily="IND-TIPO6_DU" status=variable vmaxpu=1.5 vminpu=0.92
New "Load.BT_09346a45bac76e51889466ee0578d575993fa6485da477c19d91aacf8ff5c051_M1" bus1="BT1002041591.1.2.3.4" phases=3 conn=Delta model=2 kv=0.22 kw=2.06499 pf=0.92 daily="IND-TIPO6_DU" status=variable vmaxpu=1.5 vminpu=0.92
New "Load.BT_09346a45bac76e51889466ee0578d575993fa6485da477c19d91aacf8ff5c051_M2" bus1="BT1002041591.1.2.3.4" phases=3 conn=Delta model=3 kv=0.22 kw=2.06499 pf=0.92 daily="IND-TIPO6_DU" status=variable vmaxpu=1.5 vminpu=0.92
New "Load.BT_1decfa9a40eba58dcefd5c6ed59ea458ba11c4905baf4d9f4f07122b44f9927d_M1" bus1="BT1001241022.1.2.4" phases=1 conn=Delta model=2 kv=0.22 kw=2.03250 pf=0.92 daily="IND-TIPO6_DU" status=variable vmaxpu=1.5 vminpu=0.92
New "Load.BT_1decfa9a40eba58dcefd5c6ed59ea458ba11c4905baf4d9f4f07122b44f9927d_M2" bus1="BT1001241022.1.2.4" phases=1 conn=Delta model=3 kv=0.22 kw=2.03250 pf=0.92 daily="IND-TIPO6_DU" status=variable vmaxpu=1.5 vminpu=0.92
New "Load.BT_88c13e8bf6e6207b928d840951cfe68bca68dbcee22052733258081f29d7b551_M1" bus1="BT1002092587.1.2.3.4" phases=3 conn=Delta model=2 kv=0.22 kw=1.29322 pf=0.92 daily="RUR-TIPO2_DU" status=variable vmaxpu=1.5 vminpu=0.92
New "Load.BT_88c13e8bf6e6207b928d840951cfe68bca68dbcee22052733258081f29d7b551_M2" bus1="BT1002092587.1.2.3.4" phases=3 conn=Delta model=3 kv=0.22 kw=1.29322 pf=0.92 daily="RUR-TIPO2_DU" status=variable vmaxpu=1.5 vminpu=0.92
New "Load.BT_b1012665fbf9babe30f41fd0a5cf396865061c6740728bcf501886a36cf8493e_M1" bus1="BT1002227758.1.2.3.4" phases=3 conn=Delta model=2 kv=0.22 kw=1.62564 pf=0.92 daily="RES-TIPO4_DU" status=variable vmaxpu=1.5 vminpu=0.92
New "Load.BT_b1012665fbf9babe30f41fd0a5cf396865061c6740728bcf501886a36cf8493e_M2" bus1="BT1002227758.1.2.3.4" phases=3 conn=Delta model=3 kv=0.22 kw=1.62564 pf=0.92 daily="RES-TIPO4_DU" status=variable vmaxpu=1.5 vminpu=0.92
New "Load.BT_c85f4b7f644aba0cd269cfc9e5ddb942cfb381d8a101db9e27e38dc8b584804b_M1" bus1="BT1000970843.1.2.3.4" phases=3 conn=Delta model=2 kv=0.22 kw=1.94345 pf=0.92 daily="IND-TIPO6_DU" status=variable vmaxpu=1.5 vminpu=0.92
New "Load.BT_c85f4b7f644aba0cd269cfc9e5ddb942cfb381d8a101db9e27e38dc8b584804b_M2" bus1="BT1000970843.1.2.3.4" phases=3 conn=Delta model=3 kv=0.22 kw=1.94345 pf=0.92 daily="IND-TIPO6_DU" status=variable vmaxpu=1.5 vminpu=0.92
New "Load.BT_0a6d9f8896e6d232bd06ddf22c222d0c80b2cb81a7d973b59e443540ed239b74_M1" bus1="BT1000870628.1.2.3.4" phases=3 conn=Delta model=2 kv=0.22 kw=1.91216 pf=0.92 daily="IND-TIPO6_DU" status=variable vmaxpu=1.5 vminpu=0.92
New "Load.BT_0a6d9f8896e6d232bd06ddf22c222d0c80b2cb81a7d973b59e443540ed239b74_M2" bus1="BT1000870628.1.2.3.4" phases=3 conn=Delta model=3 kv=0.22 kw=1.91216 pf=0.92 daily="IND-TIPO6_DU" status=variable vmaxpu=1.5 vminpu=0.92
New "Load.BT_7ef015cffa0761394c0e4f6cb5e0eb667ef52c8fe26b02855e3af114aff94f67_M1" bus1="BT1002146693.1.2.3.4" phases=3 conn=Delta model=2 kv=0.22 kw=1.91096 pf=0.92 daily="IND-TIPO6_DU" status=variable vmaxpu=1.5 vminpu=0.92
New "Load.BT_7ef015cffa0761394c0e4f6cb5e0eb667ef52c8fe26b02855e3af114aff94f67_M2" bus1="BT1002146693.1.2.3.4" phases=3 conn=Delta model=3 kv=0.22 kw=1.91096 pf=0.92 daily="IND-TIPO6_DU" status=variable vmaxpu=1.5 vminpu=0.92
New "Load.BT_8183a7b7c317bd74f8044abb45fbbba7c93f424745562f8d2c4c3094ea51f1dc_M1" bus1="BT1001304770.1.2.4" phases=1 conn=Delta model=2 kv=0.22 kw=1.90494 pf=0.92 daily="IND-TIPO6_DU" status=variable vmaxpu=1.5 vminpu=0.92
New "Load.BT_8183a7b7c317bd74f8044abb45fbbba7c93f424745562f8d2c4c3094ea51f1dc_M2" bus1="BT1001304770.1.2.4" phases=1 conn=Delta model=3 kv=0.22 kw=1.90494 pf=0.92 daily="IND-TIPO6_DU" status=variable vmaxpu=1.5 vminpu=0.92
New "Load.BT_ace004c04319fb6f0d1d99266ab4fc61b4e8a51175e702c4219d8a2e323336fc_M1" bus1="BT1002042379.1.2.3.4" phases=3 conn=Delta model=2 kv=0.22 kw=1.90133 pf=0.92 daily="IND-TIPO6_DU" status=variable vmaxpu=1.5 vminpu=0.92
New "Load.BT_ace004c04319fb6f0d1d99266ab4fc61b4e8a51175e702c4219d8a2e323336fc_M2" bus1="BT1002042379.1.2.3.4" phases=3 conn=Delta model=3 kv=0.22 kw=1.90133 pf=0.92 daily="IND-TIPO6_DU" status=variable vmaxpu=1.5 vminpu=0.92
New "Load.BT_a541286645d76c1c30007bbef31f6d0f9629baf6d7488f98bb5b17ccead91526_M1" bus1="BT1002263435.1.2.3.4" phases=3 conn=Delta model=2 kv=0.22 kw=1.53041 pf=0.92 daily="RES-TIPO4_DU" status=variable vmaxpu=1.5 vminpu=0.92
New "Load.BT_a541286645d76c1c30007bbef31f6d0f9629baf6d7488f98bb5b17ccead91526_M2" bus1="BT1002263435.1.2.3.4" phases=3 conn=Delta model=3 kv=0.22 kw=1.53041 pf=0.92 daily="RES-TIPO4_DU" status=variable vmaxpu=1.5 vminpu=0.92
New "Load.BT_101c42d0cb9f705dc06e11e183e7a267571a099255f08a347713e70ef97994d4_M1" bus1="BT1002119080.1.2.3.4" phases=3 conn=Delta model=2 kv=0.22 kw=1.87125 pf=0.92 daily="IND-TIPO6_DU" status=variable vmaxpu=1.5 vminpu=0.92
New "Load.BT_101c42d0cb9f705dc06e11e183e7a267571a099255f08a347713e70ef97994d4_M2" bus1="BT1002119080.1.2.3.4" phases=3 conn=Delta model=3 kv=0.22 kw=1.87125 pf=0.92 daily="IND-TIPO6_DU" status=variable vmaxpu=1.5 vminpu=0.92
New "Load.BT_6e8a05498606936b5cb9551cc8de2d4a0c182cce5ced21c7c96e6bd7e34e9a3c_M1" bus1="BT1002008003.1.2.3.4" phases=3 conn=Delta model=2 kv=0.22 kw=1.87004 pf=0.92 daily="IND-TIPO6_DU" status=variable vmaxpu=1.5 vminpu=0.92