! DU_7_TrechoMT_391_MTQ_RMTQ1302
New "Line.SMT_290289581_B" phases=3 bus1="MT4370552745444622MT02.1.2.3" bus2="MT4370551845444634MT02.1.2.3" linecode="70AX3MT5AZN1_3" length=0.00015465 units=km
New "Line.SMT_27003847_B" phases=3 bus1="MT435691784532248MT02.1.2.3" bus2="MT4356916545322472MT02.1.2.3" linecode="70AX3MT5AZN1_3" length=0.00015774 units=km
New "Line.SMT_27026382_B" phases=3 bus1="MT4376839145337139MT02.1.2.3" bus2="MT4376838945337154MT02.1.2.3" linecode="70AX3MT5AZN1_3" length=0.00015568 units=km
New "Line.SMT_27032761_B" phases=3 bus1="MT438127754534237MT02.1.2.3" bus2="MT4381278145342384MT02.1.2.3" linecode="70AX3MT5AZN1_3" length=0.00015671 units=km
New "Line.SMT_351552365_B" phases=3 bus1="MT4353472645351632MT02.1.2.3" bus2="MT4353471245351638MT02.1.2.3" linecode="70AX3MT5AZN1_3" length=0.00015671 units=km
New "Line.SMT_347392644_B" phases=3 bus1="MT4357620345319985MT02.1.2.3" bus2="MT4357619345319997MT02.1.2.3" linecode="70AX3MT5AZN1_3" length=0.00016084 units=km
New "Line.SMT_290289538_B" phases=3 bus1="MT4370958245439436MT02.1.2.3" bus2="MT4370957245439448MT02.1.2.3" linecode="70AX3MT5AZN1_3" length=0.00016084 units=km
New "Line.SMT_27090448_B" phases=3 bus1="MT4374270345465555MT02.1.2.3" bus2="MT4374269245465566MT02.1.2.3" linecode="70AX3MT5AZN1_3" length=0.00016084 units=km
New "Line.SMT_27047641_B" phases=3 bus1="MT436780214532938MT02.1.2.3" bus2="MT4367802545329395MT02.1.2.3" linecode="70AX3MT5AZN1_3" length=0.00015981 units=km
New "Line.SMT_214846358_B" phases=3 bus1="MT4371046945434804MT02.1.2.3" bus2="MT43710164543518MT02.1.2.3" linecode="70AX3MT5AZN1_3" length=0.00501788 units=km
New "Line.SMT_290069181_B" phases=3 bus1="MT4373690645455211MT02.1.2.3" bus2="MT4374017345457747MT02.1.2.3" linecode="70AX3MT5AZN1_3" length=0.04264010 units=km
New "Line.SMT_70829640_B" phases=3 bus1="MT437369824544223MT02.1.2.3" bus2="MT4373977645444553MT02.1.2.3" linecode="70AX3MT5AZN1_3" length=0.03746242 units=km
New "Line.SMT_214029397_B" phases=3 bus1="MT4376568345397623MT02.1.2.3" bus2="MT4376510645399611MT02.1.2.3" linecode="70AX3MT5AZN1_3" length=0.02134170 units=km
New "Line.SMT_70829635_B" phases=3 bus1="MT4373977645444553MT02.1.2.3" bus2="MT437425745446858MT02.1.2.3" linecode="70AX3MT5AZN1_3" length=0.03734385 units=km
New "Line.SMT_214029408_B" phases=3 bus1="MT437666845391897MT02.1.2.3" bus2="MT4376645545394795MT02.1.2.3" linecode="70AX3MT5AZN1_3" length=0.02996808 units=km
New "Line.SMT_357549178_B" phases=3 bus1="MT436793145390227MT02.1.2.3" bus2="MT4367773345388939MT02.1.2.3" linecode="70AX3MT5AZN1_3" length=0.02099219 units=km
New "Line.SMT_290289583_B" phases=3 bus1="MT4370551845444634MT02.1.2.3" bus2="MT4370550545444652MT02.1.2.3" linecode="70AX3MT5AZN1_3" length=0.00022888 units=km
New "Line.SMT_357549000_B" phases=3 bus1="MT4367298645398558MT02.1.2.3" bus2="MT436735794539903MT02.1.2.3" linecode="70AX3MT5AZN1_3" length=0.00781395 units=km
New "Line.SMT_141393697_B" phases=3 bus1="MT4374920345456959MT02.1.2.3" bus2="MT4374689545455052MT02.1.2.3" linecode="70AX3MT5AZN1_3" length=0.03086711 units=km
New "Line.SMT_351586118_B" phases=3 bus1="MT4354443645348091MT02.1.2.3" bus2="MT4354135645348487MT02.1.2.3" linecode="70AX3MT5AZN1_3" length=0.03201667 units=km
New "Line.SMT_106525654_B" phases=3 bus1="MT4357205745324795MT02.1.2.3" bus2="MT4356924945322526MT02.1.2.3" linecode="70AX3MT5AZN1_3" length=0.03722116 units=km
New "Line.SMT_106525649_B" phases=3 bus1="MT4357205745324795MT02.1.2.3" bus2="MT4356960145327857MT02.1.2.3" linecode="70AX3MT5AZN1_3" length=0.04046984 units=km
New "Line.SMT_351552410_B" phases=3 bus1="MT4353783645350271MT02.1.2.3" bus2="MT4353498245351507MT02.1.2.3" linecode="70AX3MT5AZN1_3" length=0.03206513 units=km
New "Line.SMT_216434180_B" phases=3 bus1="MT4375998645414382MT02.1.2.3" bus2="MT437611845410968MT02.1.2.3" linecode="70AX3MT5AZN1_3" length=0.03728921 units=km
New "Line.SMT_290289575_B" phases=3 bus1="MT4370732845442127MT02.1.2.3" bus2="MT4370552745444622MT02.1.2.3" linecode="70AX3MT5AZN1_3" length=0.03172490 units=km
New "Line.SMT_2326174_B" phases=3 bus1="MT4371889145298413MT02.1.2.3" bus2="MT437225845298573MT02.1.2.3" linecode="70AX3MT5AZN1_3" length=0.03806967 units=km
New "Line.SMT_290069153_B" phases=3 bus1="MT4374332345460116MT02.1.2.3" bus2="MT4374588445461908MT02.1.2.3" linecode="70AX3MT5AZN1_3" length=0.03222597 units=km
New "Line.SMT_135924860_B" phases=3 bus1="MT437336764544403MT02.1.2.3" bus2="MT4373106645442045MT02.1.2.3" linecode="70AX3MT5AZN1_3" length=0.03380752 units=km
New "Line.SMT_355182652_B" phases=3 bus1="MT4375673245420685MT02.1.2.3" bus2="MT4375904245417705MT02.1.2.3" linecode="70AX3MT5AZN1_3" length=0.03887385 units=km
New "Line.SMT_135924854_B" phases=3 bus1="MT4373480345444887MT02.1.2.3" bus2="MT4373378545444113MT02.1.2.3" linecode="70AX3MT5AZN1_3" length=0.01318443 units=km
New "Line.SMT_290289616_B" phases=3 bus1="MT4371202445436003MT02.1.2.3" bus2="MT4370967645439323MT02.1.2.3" linecode="70AX3MT5AZN1_3" length=0.04192458 units=km
New "Line.SMT_290069274_B" phases=3 bus1="MT4371526545438572MT02.1.2.3" bus2="MT437174254544015MT02.1.2.3" linecode="70AX3MT5AZN1_3" length=0.02757925 units=km
New "Line.SMT_290069250_B" phases=3 bus1="MT4371786545440472MT02.1.2.3" bus2="MT4372064545442662MT02.1.2.3" linecode="70AX3MT5AZN1_3" length=0.03648709 units=km
New "Line.SMT_214029393_B" phases=3 bus1="MT4376668145391888MT02.1.2.3" bus2="MT437666845391897MT02.1.2.3" linecode="70AX3MT5AZN1_3" length=0.00009382 units=km
New "Line.SMT_39922274_B" phases=3 bus1="MT4370212545346401MT02.1.2.3" bus2="MT43701925453488MT02.1.2.3" linecode="70AX3MT5AZN1_3" length=0.02481926 units=km
New "Line.SMT_343952473_B" phases=3 bus1="MT4391473245333453MT02.1.2.3" bus2="MT439151145332383MT02.1.2.3" linecode="70AX3MT5AZN1_3" length=0.01169979 units=km
New "Line.SMT_357535902_B" phases=3 bus1="MT4367683645394948MT02.1.2.3" bus2="MT4367682645394948MT02.1.2.3" linecode="70AX3MT5AZN1_3" length=0.00010310 units=km
New "Line.SMT_347392645_B" phases=3 bus1="MT4357635645319807MT02.1.2.3" bus2="MT4357620345319985MT02.1.2.3" linecode="70AX3MT5AZN1_3" length=0.00241976 units=km
New "Line.SMT_357549074_B" phases=3 bus1="MT43676022453943MT02.1.2.3" bus2="MT436768345394943MT02.1.2.3" linecode="70AX3MT5AZN1_3" length=0.01064611 units=km
New "Line.SMT_214029388_B" phases=3 bus1="MT4376688645388602MT02.1.2.3" bus2="MT4376668145391888MT02.1.2.3" linecode="70AX3MT5AZN1_3" length=0.03394464 units=km
New "Line.SMT_27003848_B" phases=3 bus1="MT4356924945322526MT02.1.2.3" bus2="MT435691784532248MT02.1.2.3" linecode="70AX3MT5AZN1_3" length=0.00087223 units=km
New "Line.SMT_27047642_B" phases=3 bus1="MT43678045329298MT02.1.2.3" bus2="MT436780214532938MT02.1.2.3" linecode="70AX3MT5AZN1_3" length=0.00087223 units=km
New "Line.SMT_27090449_B" phases=3 bus1="MT4374276245465495MT02.1.2.3" bus2="MT4374270345465555MT02.1.2.3" linecode="70AX3MT5AZN1_3" length=0.00086707 units=km
New "Line.SMT_135924868_B" phases=3 bus1="MT437336764544403MT02.1.2.3" bus2="MT4373354145444193MT02.1.2.3" linecode="70AX3MT5AZN1_3" length=0.00218160 units=km
New "Line.SMT_214029407_B" phases=3 bus1="MT4376645545394795MT02.1.2.3" bus2="MT4376568345397623MT02.1.2.3" linecode="70AX3MT5AZN1_3" length=0.03022376 units=km
New "Line.SMT_351552314_B" phases=3 bus1="MT4353355145352203MT02.1.2.3" bus2="MT435331434535238MT02.1.2.3" linecode="70AX3MT5AZN1_3" length=0.00458486 units=km
New "Line.SMT_357549165_B" phases=3 bus1="MT436793145390227MT02.1.2.3" bus2="MT436802184539097MT02.1.2.3" linecode="70AX3MT5AZN1_3" length=0.01209569 units=km
New "Line.SMT_357549008_B" phases=3 bus1="MT4367298645398558MT02.1.2.3" bus2="MT4367107945397037MT02.1.2.3" linecode="70AX3MT5AZN1_3" length=0.02514918 units=km
New "Line.SMT_1777135_B" phases=3 bus1="MT2986566ID.1.2.3" bus2="MT4376789745340475MT02.1.2.3" linecode="70AX3MT5AZN1_3" length=0.03461273 units=km
New "Line.SMT_351552364_B" phases=3 bus1="MT318984965ID.1.2.3" bus2="MT4353355145352203MT02.1.2.3" linecode="70AX3MT5AZN1_3" length=0.01331227 units=km
New "Line.SMT_355182651_B" phases=3 bus1="MT4375904245417705MT02.1.2.3" bus2="MT4375998645414382MT02.1.2.3" linecode="70AX3MT5AZN1_3" length=0.03561590 units=km
New "Line.SMT_290054118_B" phases=3 bus1="MT4371202445436003MT02.1.2.3" bus2="MT437146545438085MT02.1.2.3" linecode="70AX3MT5AZN1_3" length=0.03455087 units=km
New "Line.SMT_351552366_B" phases=3 bus1="MT4353498245351507MT02.1.2.3" bus2="MT4353472645351632MT02.1.2.3" linecode="70AX3MT5AZN1_3" length=0.00293732 units=km
New "Line.SMT_40216356_B" phases=3 bus1="MT4372602145298855MT02.1.2.3" bus2="MT4372591845298846MT02.1.2.3" linecode="70AX3MT5AZN1_3" length=0.00106605 units=km
New "Line.SMT_290054147_B" phases=3 bus1="MT437206545442666MT02.1.2.3" bus2="MT4372116445443071MT02.1.2.3" linecode="70AX3MT5AZN1_3" length=0.00674686 units=km
New "Line.SMT_27032762_B" phases=3 bus1="MT4381271445342233MT02.1.2.3" bus2="MT438127754534237MT02.1.2.3" linecode="70AX3MT5AZN1_3" length=0.00154650 units=km
New "Line.SMT_141393701_B" phases=3 bus1="MT4374689545455052MT02.1.2.3" bus2="MT4374683645455059MT02.1.2.3" linecode="70AX3MT5AZN1_3" length=0.00061241 units=km
New "Line.SMT_27026383_B" phases=3 bus1="MT43768445337082MT02.1.2.3" bus2="MT4376839145337139MT02.1.2.3" linecode="70AX3MT5AZN1_3" length=0.00059489 units=km
New "Line.SMT_290054131_B" phases=3 bus1="MT4371743145440155MT02.1.2.3" bus2="MT4371786545440472MT02.1.2.3" linecode="70AX3MT5AZN1_3" length=0.00554059 units=km
New "Line.SMT_2364350_B" phases=3 bus1="MT4376483845386788MT02.1.2.3" bus2="MT4376465945386655MT02.1.2.3" linecode="70AX3MT5AZN1_3" length=0.00229913 units=km
New "Line.SMT_39922275_B" phases=3 bus1="MT4370223545345297MT02.1.2.3" bus2="MT4370212545346401MT02.1.2.3" linecode="70AX3MT5AZN1_3" length=0.01143895 units=km
New "Line.SMT_290069294_B" phases=3 bus1="MT437146545438085MT02.1.2.3" bus2="MT4371465545438089MT02.1.2.3" linecode="70AX3MT5AZN1_3" length=0.00006598 units=km
New "Line.SMT_290069218_B" phases=3 bus1="MT4372403945445248MT02.1.2.3" bus2="MT4372446445445571MT02.1.2.3" linecode="70AX3MT5AZN1_3" length=0.00550348 units=km
New "Line.SMT_290289615_B" phases=3 bus1="MT4370967645439323MT02.1.2.3" bus2="MT4370966845439334MT02.1.2.3" linecode="70AX3MT5AZN1_3" length=0.00014022 units=km
New "Line.SMT_290289539_B" phases=3 bus1="MT4370966845439334MT02.1.2.3" bus2="MT4370958245439436MT02.1.2.3" linecode="70AX3MT5AZN1_3" length=0.00137535 units=km
New "Line.SMT_290054168_B" phases=3 bus1="MT4372116445443071MT02.1.2.3" bus2="MT437240245445234MT02.1.2.3" linecode="70AX3MT5AZN1_3" length=0.03693661 units=km
New "Line.SMT_290069293_B" phases=3 bus1="MT4371465545438089MT02.1.2.3" bus2="MT4371526545438572MT02.1.2.3" linecode="70AX3MT5AZN1_3" length=0.00802221 units=km
New "Line.SMT_290069273_B" phases=3 bus1="MT437174254544015MT02.1.2.3" bus2="MT4371743145440155MT02.1.2.3" linecode="70AX3MT5AZN1_3" length=0.00008042 units=km
New "Line.SMT_290069249_B" phases=3 bus1="MT4372064545442662MT02.1.2.3" bus2="MT437206545442666MT02.1.2.3" linecode="70AX3MT5AZN1_3" length=0.00006598 units=km
New "Line.SMT_290069219_B" phases=3 bus1="MT437240245445234MT02.1.2.3" bus2="MT4372403945445248MT02.1.2.3" linecode="70AX3MT5AZN1_3" length=0.00024332 units=km
New "Line.SMT_135924861_B" phases=3 bus1="MT4373378545444113MT02.1.2.3" bus2="MT437336764544403MT02.1.2.3" linecode="70AX3MT5AZN1_3" length=0.00141247 units=km
New "Line.SMT_290054189_B" phases=3 bus1="MT4372446445445571MT02.1.2.3" bus2="MT4372710945447619MT02.1.2.3" linecode="70AX3MT5AZN1_3" length=0.03448901 units=km
New "Line.SMT_290289537_B" phases=3 bus1="MT312514230ID.1.2.3" bus2="MT4370732845442127MT02.1.2.3" linecode="70AX3MT5AZN1_3" length=0.03602933 units=km
New "Line.SMT_27057416_B" phases=3 bus1="MT4362610545365087MT02.1.2.3" bus2="MT4362611445365075MT02.1.2.3" linecode="1/0AN3MT1_3" length=0.00015465 units=km
New "Line.SMT_27066828_B" phases=3 bus1="MT4357677345313878MT02.1.2.3" bus2="MT4357676145313869MT02.1.2.3" linecode="1/0AN3MT1_3" length=0.00015465 units=km
New "Line.SMT_27093762_B" phases=3 bus1="MT4381533745355366MT02.1.2.3" bus2="MT4381534645355378MT02.1.2.3" linecode="1/0AN3MT1_3" length=0.00015465 units=km
New "Line.SMT_27027901_B" phases=3 bus1="MT4368137845312082MT02.1.2.3" bus2="MT4368136645312073MT02.1.2.3" linecode="336AN3MT3/0AN1_3" length=0.00015465 units=km
New "Line.SMT_27046967_B" phases=3 bus1="MT4363083345324393MT02.1.2.3" bus2="MT4363081845324392MT02.1.2.3" linecode="336AN3MT1_3" length=0.00015465 units=km
New "Line.SMT_142739815_B" phases=3 bus1="MT436798324530429MT02.1.2.3" bus2="MT4367983245304275MT02.1.2.3" linecode="185AX3MT5AZN1_3" length=0.00015465 units=km
New "Line.SMT_27042276_B" phases=3 bus1="MT43587739453043MT02.1.2.3" bus2="MT435877445304315MT02.1.2.3" linecode="185AX3MT5AZN1_3" length=0.00015465 units=km
New "Line.SMT_26991892_B" phases=3 bus1="MT4367478845307887MT02.1.2.3" bus2="MT4367477545307879MT02.1.2.3" linecode="336AN3MT3/0AN1_3" length=0.00015774 units=km
New "Line.SMT_335517054_B" phases=3 bus1="MT4391126945331848MT02.1.2.3" bus2="MT4391126145331861MT02.1.2.3" linecode="185AX3MT5AZN1_3" length=0.00015774 units=km
New "Line.SMT_301713490_B" phases=3 bus1="MT4388816345350428MT02.1.2.3" bus2="MT4388816645350443MT02.1.2.3" linecode="185AX3MT5AZN1_3" length=0.00015774 units=km
New "Line.SMT_27070157_B" phases=3 bus1="MT437004845329288MT02.1.2.3" bus2="MT4370046645329283MT02.1.2.3" linecode="336AN3MT1_3" length=0.00015362 units=km
New "Line.SMT_27008325_B" phases=3 bus1="MT439156445356597MT02.1.2.3" bus2="MT4391562645356592MT02.1.2.3" linecode="336AN3MT1_3" length=0.00015362 units=km
New "Line.SMT_376849970_F" phases=3 bus1="MT4358016845334543MT02.1.2.3" bus2="MT4358015845334554MT02.1.2.3" linecode="1/0AN3MT1_3" length=0.00015362 units=km
New "Line.SMT_223738086_F" phases=3 bus1="MT4360073845314561MT02.1.2.3" bus2="MT4360075245314556MT02.1.2.3" linecode="1/0AN3MT1_3" length=0.00015362 units=km
New "Line.SMT_232218927_B" phases=3 bus1="MT4358347845291393MT02.1.2.3" bus2="MT4358346445291387MT02.1.2.3" linecode="185AX3MT5AZN1_3" length=0.00015671 units=km
New "Line.SMT_27020705_B" phases=3 bus1="MT4370450145328359MT02.1.2.3" bus2="MT4370450745328345MT02.1.2.3" linecode="1/0AN3MT1_3" length=0.00015671 units=km
New "Line.SMT_351588828_F" phases=3 bus1="MT4355293545342741MT02.1.2.3" bus2="MT435529244534273MT02.1.2.3" linecode="1/0AN3MT1_3" length=0.00016084 units=km
New "Line.SMT_106568665_B" phases=3 bus1="MT4364453345325464MT02.1.2.3" bus2="MT4364452345325476MT02.1.2.3" linecode="1/0AN3MT1_3" length=0.00016084 units=km
New "Line.SMT_27043516_B" phases=3 bus1="MT4361859245357767MT02.1.2.3" bus2="MT4361860245357755MT02.1.2.3" linecode="1/0AN3MT1_3" length=0.00016084 units=km
New "Line.SMT_26986447_B" phases=3 bus1="MT4359074845307856MT02.1.2.3" bus2="MT4359075945307867MT02.1.2.3" linecode="185AX3MT5AZN1_3" length=0.00016084 units=km
New "Line.SMT_376330143_B" phases=3 bus1="MT436398545379898MT02.1.2.3" bus2="MT4363986245379908MT02.1.2.3" linecode="185AX3MT5AZN1_3" length=0.00016084 units=km
New "Line.SMT_224173567_B" phases=3 bus1="MT4358224445290821MT02.1.2.3" bus2="MT435822345290814MT02.1.2.3" linecode="185AX3MT5AZN1_3" length=0.00016187 units=km
New "Line.SMT_223738085_F" phases=3 bus1="MT4360065745314587MT02.1.2.3" bus2="MT4360073845314561MT02.1.2.3" linecode="1/0AN3MT1_3" length=0.00087738 units=km
New "Line.SMT_27008326_B" phases=3 bus1="MT4391572145356623MT02.1.2.3" bus2="MT439156445356597MT02.1.2.3" linecode="336AN3MT1_3" length=0.00087738 units=km
New "Line.SMT_215685630_B" phases=3 bus1="MT4394335245365331MT02.1.2.3" bus2="MT4394336745365336MT02.1.2.3" linecode="185AX3MT5AZN1_3" length=0.00016290 units=km
New "Line.SMT_27043517_B" phases=3 bus1="MT4361853845357832MT02.1.2.3" bus2="MT4361859245357767MT02.1.2.3" linecode="1/0AN3MT1_3" length=0.00087120 units=km
New "Line.SMT_27093763_B" phases=3 bus1="MT4381528845355296MT02.1.2.3" bus2="MT4381533745355366MT02.1.2.3" linecode="1/0AN3MT1_3" length=0.00088047 units=km
New "Line.SMT_27057417_B" phases=3 bus1="MT4362605245365154MT02.1.2.3" bus2="MT4362610545365087MT02.1.2.3" linecode="1/0AN3MT1_3" length=0.00088047 units=km
New "Line.SMT_27066829_B" phases=3 bus1="MT4357683945313931MT02.1.2.3" bus2="MT4357677345313878MT02.1.2.3" linecode="1/0AN3MT1_3" length=0.00087223 units=km
New "Line.SMT_27070158_B" phases=3 bus1="MT437005645329318MT02.1.2.3" bus2="MT437004845329288MT02.1.2.3" linecode="336AN3MT1_3" length=0.00088047 units=km
New "Line.SMT_27046968_B" phases=3 bus1="MT4363091845324399MT02.1.2.3" bus2="MT4363083345324393MT02.1.2.3" linecode="336AN3MT1_3" length=0.00087841 units=km
New "Line.SMT_27042277_B" phases=3 bus1="MT4358773345304216MT02.1.2.3" bus2="MT43587739453043MT02.1.2.3" linecode="185AX3MT5AZN1_3" length=0.00086810 units=km
New "Line.SMT_26991893_B" phases=3 bus1="MT436748614530793MT02.1.2.3" bus2="MT4367478845307887MT02.1.2.3" linecode="336AN3MT3/0AN1_3" length=0.00087326 units=km
New "Line.SMT_26986448_B" phases=3 bus1="MT4359068945307796MT02.1.2.3" bus2="MT4359074845307856MT02.1.2.3" linecode="185AX3MT5AZN1_3" length=0.00086707 units=km
New "Line.SMT_376850023_F" phases=3 bus1="MT4358023545334469MT02.1.2.3" bus2="MT4358016845334543MT02.1.2.3" linecode="1/0AN3MT1_3" length=0.00102894 units=km
New "Line.SMT_27027902_B" phases=3 bus1="MT4368144545312134MT02.1.2.3" bus2="MT4368137845312082MT02.1.2.3" linecode="336AN3MT3/0AN1_3" length=0.00087429 units=km
New "Line.SMT_29075508_F" phases=3 bus1="MT4354512545335392MT02.1.2.3" bus2="MT4354262545333392MT02.1.2.3" linecode="1/0AN3MT1_3" length=0.03300850 units=km
New "Line.SMT_45014723_F" phases=3 bus1="MT4370978145443643MT02.1.2.3" bus2="MT4371220845445344MT02.1.2.3" linecode="70AX3MT1_3" length=0.03055575 units=km
New "Line.SMT_31999323_B" phases=3 bus1="MT4371492245378264MT02.1.2.3" bus2="MT4371512345375441MT02.1.2.3" linecode="70AX3MT6AZN1_3" length=0.02917833 units=km
New "Line.SMT_2332959_F" phases=3 bus1="MT4362013745355791MT02.1.2.3" bus2="MT4361786445354072MT02.1.2.3" linecode="1/0AN3MT1_3" length=0.02938144 units=km
New "Line.SMT_215784698_B" phases=3 bus1="MT4391988145334911MT02.1.2.3" bus2="MT4392241345335741MT02.1.2.3" linecode="185AX3MT5AZN1_3" length=0.02747203 units=km
New "Line.SMT_290054031_F" phases=3 bus1="MT4370732845442127MT02.1.2.3" bus2="MT4370978145443643MT02.1.2.3" linecode="70AX3MT1_3" length=0.02973095 units=km
New "Line.SMT_31871427_F" phases=3 bus1="MT4383778645366345MT02.1.2.3" bus2="MT4383479545366141MT02.1.2.3" linecode="1/0AN3MT1_3" length=0.03090835 units=km
New "Line.SMT_31871446_F" phases=3 bus1="MT4383479545366141MT02.1.2.3" bus2="MT4383180645365944MT02.1.2.3" linecode="1/0AN3MT1_3" length=0.03088360 units=km
New "Line.SMT_31999636_B" phases=3 bus1="MT437598145374737MT02.1.2.3" bus2="MT4376020845371833MT02.1.2.3" linecode="70AX3MT6AZN1_3" length=0.03021964 units=km
New "Line.SMT_31871156_F" phases=3 bus1="MT4384275945359751MT02.1.2.3" bus2="MT4384575345359951MT02.1.2.3" linecode="1/0AN3MT1_3" length=0.03093722 units=km
New "Line.SMT_140191939_B" phases=3 bus1="MT4363054345359573MT02.1.2.3" bus2="MT436321324535767MT02.1.2.3" linecode="1/0AN3MT1_3" length=0.02556055 units=km
New "Line.SMT_361378256_B" phases=3 bus1="MT438000564533373MT02.1.2.3" bus2="MT4380272145333462MT02.1.2.3" linecode="1/0AN3MT1_3" length=0.02761430 units=km
New "Line.SMT_31348526_F" phases=3 bus1="MT4355885845313867MT02.1.2.3" bus2="MT4355649945312005MT02.1.2.3" linecode="1/0AN3MT1_3" length=0.03098464 units=km
New "Line.SMT_30971731_B" phases=3 bus1="MT4393642645363192MT02.1.2.3" bus2="MT4393872645363892MT02.1.2.3" linecode="336AN3MT1_3" length=0.02478730 units=km
New "Line.SMT_358925047_B" phases=3 bus1="MT4382729445365632MT02.1.2.3" bus2="MT4382767245368509MT02.1.2.3" linecode="1/0AN3MT1/0AN1_3" length=0.02991653 units=km
New "Line.SMT_1765381_F" phases=3 bus1="MT4362536645344871MT02.1.2.3" bus2="MT4362306945342975MT02.1.2.3" linecode="1/0AN3MT1_3" length=0.03070730 units=km
New "Line.SMT_31676468_B" phases=3 bus1="MT4370478745303638MT02.1.2.3" bus2="MT4370498245300771MT02.1.2.3" linecode="1/0AN3MT1_3" length=0.02962682 units=km
New "Line.SMT_1755699_B" phases=3 bus1="MT4353956945331085MT02.1.2.3" bus2="MT4354002245330516MT02.1.2.3" linecode="1/0AN3MT1_3" length=0.00749846 units=km
New "Line.SMT_31680312_F" phases=3 bus1="MT4372478245274514MT02.1.2.3" bus2="MT4372537745277248MT02.1.2.3" linecode="1/0AN3MT1_3" length=0.02884738 units=km
New "Line.SMT_2083284_B" phases=3 bus1="MT4371651545380083MT02.1.2.3" bus2="MT4371492245378264MT02.1.2.3" linecode="70AX3MT6AZN1_3" length=0.02492855 units=km
New "Line.SMT_2514514_B" phases=3 bus1="MT4384932845367134MT02.1.2.3" bus2="MT438467445366956MT02.1.2.3" linecode="1/0AN3MT1/0AN1_3" length=0.02674517 units=km
New "Line.SMT_1872436_F" phases=3 bus1="MT4362742545346601MT02.1.2.3" bus2="MT4362536645344871MT02.1.2.3" linecode="1/0AN3MT1_3" length=0.02772668 units=km
New "Line.SMT_215784699_B" phases=3 bus1="MT4391736745334199MT02.1.2.3" bus2="MT4391988145334911MT02.1.2.3" linecode="185AX3MT5AZN1_3" length=0.02693900 units=km
New "Line.SMT_31871185_F" phases=3 bus1="MT4381642345356967MT02.1.2.3" bus2="MT4381840945357982MT02.1.2.3" linecode="1/0AN3MT1_3" length=0.02299439 units=km
New "Line.SMT_106568573_F" phases=3 bus1="MT4365100345325786MT02.1.2.3" bus2="MT4364841845325592MT02.1.2.3" linecode="336AN3MT1_3" length=0.02672661 units=km
New "Line.SMT_1818948_F" phases=3 bus1="MT4361786445354072MT02.1.2.3" bus2="MT4361555145352186MT02.1.2.3" linecode="1/0AN3MT1_3" length=0.03077020 units=km
New "Line.SMT_28890316_F" phases=3 bus1="MT4369716245433638MT02.1.2.3" bus2="MT4369499845435885MT02.1.2.3" linecode="1/0AN3MT1_3" length=0.03216308 units=km
New "Line.SMT_30589085_F" phases=3 bus1="MT4361705445359579MT02.1.2.3" bus2="MT4361853845357832MT02.1.2.3" linecode="1/0AN3MT1_3" length=0.02363258 units=km
New "Line.SMT_3235014_F" phases=3 bus1="MT4369616445423871MT02.1.2.3" bus2="MT4369946445426371MT02.1.2.3" linecode="1/0AN3MT1_3" length=0.04268340 units=km
New "Line.SMT_29454190_F" phases=3 bus1="MT435867634532217MT02.1.2.3" bus2="MT4358913745323991MT02.1.2.3" linecode="1/0AN3MT1_3" length=0.03084752 units=km
New "Line.SMT_29076163_F" phases=3 bus1="MT43633345339559MT02.1.2.3" bus2="MT4363372545338992MT02.1.2.3" linecode="1/0AN3MT1_3" length=0.00730567 units=km
New "Line.SMT_31676493_B" phases=3 bus1="MT4370546545294565MT02.1.2.3" bus2="MT4370570245291374MT02.1.2.3" linecode="1/0AN3MT1_3" length=0.03298994 units=km
New "Line.SMT_30398387_F" phases=3 bus1="MT4362531845323992MT02.1.2.3" bus2="MT4362831845324192MT02.1.2.3" linecode="336AN3MT1_3" length=0.03099908 units=km
New "Line.SMT_31871387_F" phases=3 bus1="MT4384953245364151MT02.1.2.3" bus2="MT4384932845367134MT02.1.2.3" linecode="1/0AN3MT1_3" length=0.03082690 units=km
New "Line.SMT_31535818_F" phases=3 bus1="MT4363781745324892MT02.1.2.3" bus2="MT4363371845324592MT02.1.2.3" linecode="336AN3MT1_3" length=0.04237410 units=km
New "Line.SMT_140191949_B" phases=3 bus1="MT436321324535767MT02.1.2.3" bus2="MT4363371945355599MT02.1.2.3" linecode="1/0AN3MT1_3" length=0.02689982 units=km
New "Line.SMT_2268663_B" phases=3 bus1="MT4362261345330291MT02.1.2.3" bus2="MT436196545329876MT02.1.2.3" linecode="1/0AN3MT1_3" length=0.03084649 units=km
New "Line.SMT_30778963_F" phases=3 bus1="MT4355965945314668MT02.1.2.3" bus2="MT4355885845313867MT02.1.2.3" linecode="1/0AN3MT1_3" length=0.01167917 units=km
New "Line.SMT_297995145_B" phases=3 bus1="MT4359150445293532MT02.1.2.3" bus2="MT4359150245293532MT02.1.2.3" linecode="185AX3MT6AZN1_3" length=0.00002062 units=km
New "Line.SMT_30969675_F" phases=3 bus1="MT4364141845325192MT02.1.2.3" bus2="MT4363781745324892MT02.1.2.3" linecode="336AN3MT1_3" length=0.03725518 units=km
New "Line.SMT_76952797_F" phases=3 bus1="MT4360974745311689MT02.1.2.3" bus2="MT4361266245311209MT02.1.2.3" linecode="1/0AN3MT1_3" length=0.03045883 units=km
New "Line.SMT_31871100_F" phases=3 bus1="MT4382480145358522MT02.1.2.3" bus2="MT4382779545358724MT02.1.2.3" linecode="1/0AN3MT1_3" length=0.03093825 units=km
New "Line.SMT_140191959_B" phases=3 bus1="MT4363371945355599MT02.1.2.3" bus2="MT4363552645353405MT02.1.2.3" linecode="1/0AN3MT1_3" length=0.02930411 units=km
New "Line.SMT_1875629_F" phases=3 bus1="MT4362164945348982MT02.1.2.3" bus2="MT436193645347079MT02.1.2.3" linecode="1/0AN3MT1_3" length=0.03068978 units=km
New "Line.SMT_2061203_F" phases=3 bus1="MT4383976445359542MT02.1.2.3" bus2="MT4384275945359751MT02.1.2.3" linecode="1/0AN3MT1_3" length=0.03095371 units=km
New "Line.SMT_31871426_F" phases=3 bus1="MT4384078445366553MT02.1.2.3" bus2="MT4383778645366345MT02.1.2.3" linecode="1/0AN3MT1_3" length=0.03098361 units=km
New "Line.SMT_140191954_B" phases=3 bus1="MT4362796945362724MT02.1.2.3" bus2="MT4362912245361299MT02.1.2.3" linecode="1/0AN3MT1_3" length=0.01889823 units=km
New "Line.SMT_1825055_F" phases=3 bus1="MT4374334545333813MT02.1.2.3" bus2="MT4374281845333792MT02.1.2.3" linecode="336AN3MT1_3" length=0.00543749 units=km
New "Line.SMT_39922246_F" phases=3 bus1="MT4370152545354798MT02.1.2.3" bus2="MT4370128745356837MT02.1.2.3" linecode="1/0AN3MT1_3" length=0.02116437 units=km
New "Line.SMT_31349150_F" phases=3 bus1="MT4362590245348756MT02.1.2.3" bus2="MT4362742545346601MT02.1.2.3" linecode="1/0AN3MT1_3" length=0.02720706 units=km
New "Line.SMT_232218926_B" phases=3 bus1="MT4358346445291387MT02.1.2.3" bus2="MT4358320445291285MT02.1.2.3" linecode="185AX3MT5AZN1_3" length=0.00287958 units=km
New "Line.SMT_106568497_F" phases=3 bus1="MT4364521945325392MT02.1.2.3" bus2="MT436446174532536MT02.1.2.3" linecode="336AN3MT1_3" length=0.00621487 units=km
New "Line.SMT_31535774_F" phases=3 bus1="MT4362849745330988MT02.1.2.3" bus2="MT4362561345330591MT02.1.2.3" linecode="1/0AN3MT1_3" length=0.03001447 units=km
New "Line.SMT_30969480_F" phases=3 bus1="MT4360080245335655MT02.1.2.3" bus2="MT43602525453332MT02.1.2.3" linecode="1/0AN3MT1_3" length=0.03092278 units=km
New "Line.SMT_29643110_F" phases=3 bus1="MT4367406345406671MT02.1.2.3" bus2="MT4367736345409271MT02.1.2.3" linecode="1/0AN3MT1_3" length=0.04331437 units=km
New "Line.SMT_31676415_B" phases=3 bus1="MT437047945325702MT02.1.2.3" bus2="MT4370378645323405MT02.1.2.3" linecode="1/0AN3MT1_3" length=0.02584511 units=km
New "Line.SMT_2041172_F" phases=3 bus1="MT4355581545311436MT02.1.2.3" bus2="MT435541954531004MT02.1.2.3" linecode="1/0AN3MT1_3" length=0.02204793 units=km
New "Line.SMT_45014772_F" phases=3 bus1="MT4369912945450889MT02.1.2.3" bus2="MT4369875245453246MT02.1.2.3" linecode="70AX3MT1_3" length=0.02460997 units=km
New "Line.SMT_31676510_B" phases=3 bus1="MT4370593245288303MT02.1.2.3" bus2="MT4370616345285192MT02.1.2.3" linecode="1/0AN3MT1_3" length=0.03216308 units=km
New "Line.SMT_29454857_F" phases=3 bus1="MT4368046445411671MT02.1.2.3" bus2="MT4368376445414171MT02.1.2.3" linecode="1/0AN3MT1_3" length=0.04268340 units=km
New "Line.SMT_31871471_F" phases=3 bus1="MT4382581745365528MT02.1.2.3" bus2="MT438228345365326MT02.1.2.3" linecode="1/0AN3MT1_3" length=0.03086608 units=km
New "Line.SMT_30778974_F" phases=3 bus1="MT4356046945315275MT02.1.2.3" bus2="MT4355965945314668MT02.1.2.3" linecode="1/0AN3MT1_3" length=0.01043578 units=km
New "Line.SMT_31349398_F" phases=3 bus1="MT4365640245300589MT02.1.2.3" bus2="MT436525054529979MT02.1.2.3" linecode="336AN3MT1_3" length=0.04101421 units=km
New "Line.SMT_2536915_B" phases=3 bus1="MT4384377645366753MT02.1.2.3" bus2="MT4384289545368243MT02.1.2.3" linecode="1/0AN3MT1/0AN1_3" length=0.01784661 units=km
New "Line.SMT_31999608_B" phases=3 bus1="MT437531254536941MT02.1.2.3" bus2="MT4375071445369238MT02.1.2.3" linecode="70AX3MT6AZN1_3" length=0.02492030 units=km
New "Line.SMT_31676410_B" phases=3 bus1="MT2985751ID.1.2.3" bus2="MT437047945325702MT02.1.2.3" linecode="1/0AN3MT1_3" length=0.02740501 units=km
New "Line.SMT_31866567_F" phases=3 bus1="MT4371053345287229MT02.1.2.3" bus2="MT437135124528746MT02.1.2.3" linecode="1/0AN3MT1_3" length=0.03080525 units=km
New "Line.SMT_110042352_B" phases=3 bus1="MT4370371445322255MT02.1.2.3" bus2="MT4370359145320276MT02.1.2.3" linecode="1/0AN3MT1_3" length=0.02044267 units=km
New "Line.SMT_29642208_F" phases=3 bus1="MT4356153245315892MT02.1.2.3" bus2="MT4355892545318992MT02.1.2.3" linecode="1/0AN3MT1_3" length=0.04176066 units=km
New "Line.SMT_140191944_B" phases=3 bus1="MT4362710745363789MT02.1.2.3" bus2="MT4362796945362724MT02.1.2.3" linecode="1/0AN3MT1_3" length=0.01412573 units=km
New "Line.SMT_376330340_F" phases=3 bus1="MT4358144845332714MT02.1.2.3" bus2="MT4358023545334469MT02.1.2.3" linecode="1/0AN3MT1_3" length=0.02199535 units=km
New "Line.SMT_30021498_F" phases=3 bus1="MT4365601845326192MT02.1.2.3" bus2="MT4365241745325892MT02.1.2.3" linecode="336AN3MT1_3" length=0.03725518 units=km
New "Line.SMT_30210319_F" phases=3 bus1="MT4361441545295692MT02.1.2.3" bus2="MT4361001445295191MT02.1.2.3" linecode="336AN3MT1_3" length=0.04566711 units=km
New "Line.SMT_138203577_B" phases=3 bus1="MT4383523345359232MT02.1.2.3" bus2="MT4383516645356362MT02.1.2.3" linecode="1/0AN3MT1_3" length=0.02959795 units=km
New "Line.SMT_45014757_F" phases=3 bus1="MT437014945449168MT02.1.2.3" bus2="MT4369912945450889MT02.1.2.3" linecode="70AX3MT1_3" length=0.03012273 units=km
New "Line.SMT_1935277_B" phases=3 bus1="MT438467445366956MT02.1.2.3" bus2="MT4384377645366753MT02.1.2.3" linecode="1/0AN3MT1_3" length=0.03062998 units=km
New "Line.SMT_30398331_F" phases=3 bus1="MT4362392545296592MT02.1.2.3" bus2="MT4361902545295992MT02.1.2.3" linecode="336AN3MT1_3" length=0.05089635 units=km
New "Line.SMT_31871472_F" phases=3 bus1="MT438228345365326MT02.1.2.3" bus2="MT4382021145365145MT02.1.2.3" linecode="1/0AN3MT1_3" length=0.02706581 units=km
New "Line.SMT_2421111_B" phases=3 bus1="MT4355581545311436MT02.1.2.3" bus2="MT435570145309919MT02.1.2.3" linecode="1/0AN3MT1_3" length=0.01990964 units=km
New "Line.SMT_31871421_F" phases=3 bus1="MT4384377645366753MT02.1.2.3" bus2="MT4384078445366553MT02.1.2.3" linecode="1/0AN3MT1_3" length=0.03091660 units=km