! DU_7_CargasMT_391_MTQ_RMTQ1302
New "Load.MT_101ece38ced16a0f8b24df7f241c069eba84b5637b7f334f5fc8315efd930657_M1" bus1="MT4370104845345171MT02.1.2.3" phases=3 conn=Delta model=2 kv=13.8 kw=59.6867494 pf=0.92 daily="MT-TIPO7_DU" status=variable vmaxpu=1.5 vminpu=0.93
New "Load.MT_101ece38ced16a0f8b24df7f241c069eba84b5637b7f334f5fc8315efd930657_M2" bus1="MT4370104845345171MT02.1.2.3" phases=3 conn=Delta model=3 kv=13.8 kw=59.6867494 pf=0.92 daily="MT-TIPO7_DU" status=variable vmaxpu=1.5 vminpu=0.93
New "Load.MT_29052fa4baeb98c9685333305e1e8a74fa01d4e923513d627bd19f485cd640ee_M1" bus1="MT4359092145322934MT02.1.2.3" phases=3 conn=Delta model=2 kv=13.8 kw=15.9153944 pf=0.92 daily="MT-TIPO7_DU" status=variable vmaxpu=1.5 vminpu=0.93
New "Load.MT_29052fa4baeb98c9685333305e1e8a74fa01d4e923513d627bd19f485cd640ee_M2" bus1="MT4359092145322934MT02.1.2.3" phases=3 conn=Delta model=3 kv=13.8 kw=15.9153944 pf=0.92 daily="MT-TIPO7_DU" status=variable vmaxpu=1.5 vminpu=0.93
New "Load.MT_29d40cdac13a92dda00abb469bea9a6ab232625abe63b064c53f0a9d1fed784d_M1" bus1="MT436091545647504MT02.1.2.3" phases=3 conn=Delta model=2 kv=13.8 kw=0.4983153 pf=0.92 daily="MT-TIPO6_DU" status=variable vmaxpu=1.5 vminpu=0.93
New "Load.MT_29d40cdac13a92dda00abb469bea9a6ab232625abe63b064c53f0a9d1fed784d_M2" bus1="MT436091545647504MT02.1.2.3" phases=3 conn=Delta model=3 kv=13.8 kw=0.4983153 pf=0.92 daily="MT-TIPO6_DU" status=variable vmaxpu=1.5 vminpu=0.93
New "Load.MT_3102cc073f77ccfbdd82e265b2bafee48354d6e9a92363bf3965e3bdbdb12737_M1" bus1="MT434395245512671MT02.1.2.3" phases=3 conn=Delta model=2 kv=13.8 kw=20.9545976 pf=0.92 daily="MT-TIPO7_DU" status=variable vmaxpu=1.5 vminpu=0.93
New "Load.MT_3102cc073f77ccfbdd82e265b2bafee48354d6e9a92363bf3965e3bdbdb12737_M2" bus1="MT434395245512671MT02.1.2.3" phases=3 conn=Delta model=3 kv=13.8 kw=20.9545976 pf=0.92 daily="MT-TIPO7_DU" status=variable vmaxpu=1.5 vminpu=0.93
New "Load.MT_4f8351cbdb0bd4f81a2911271799e65954af02ca02265876a56bdedc92a3637d_M1" bus1="MT4360071845294382MT02.1.2.3" phases=3 conn=Delta model=2 kv=13.8 kw=7.4600902 pf=0.92 daily="MT-TIPO2_DU" status=variable vmaxpu=1.5 vminpu=0.93
New "Load.MT_4f8351cbdb0bd4f81a2911271799e65954af02ca02265876a56bdedc92a3637d_M2" bus1="MT4360071845294382MT02.1.2.3" phases=3 conn=Delta model=3 kv=13.8 kw=7.4600902 pf=0.92 daily="MT-TIPO2_DU" status=variable vmaxpu=1.5 vminpu=0.93
New "Load.MT_56cd59315a450888852f179baf01b771ce9e97df481b24f2b1a6e948a621b1a7_M1" bus1="MT4377631945335992MT02.1.2.3" phases=3 conn=Delta model=2 kv=13.8 kw=202.0228077 pf=0.92 daily="MT-TIPO6_DU" status=variable vmaxpu=1.5 vminpu=0.93
New "Load.MT_56cd59315a450888852f179baf01b771ce9e97df481b24f2b1a6e948a621b1a7_M2" bus1="MT4377631945335992MT02.1.2.3" phases=3 conn=Delta model=3 kv=13.8 kw=202.0228077 pf=0.92 daily="MT-TIPO6_DU" status=variable vmaxpu=1.5 vminpu=0.93
New "Load.MT_622b697e13e48ad80ad95cb50c37fb6c0a7faad2d49914b0501148f60aa49a21_M1" bus1="MT4369897545373166MT02.1.2.3" phases=3 conn=Delta model=2 kv=13.8 kw=11.7488021 pf=0.92 daily="MT-TIPO7_DU" status=variable vmaxpu=1.5 vminpu=0.93
New "Load.MT_622b697e13e48ad80ad95cb50c37fb6c0a7faad2d49914b0501148f60aa49a21_M2" bus1="MT4369897545373166MT02.1.2.3" phases=3 conn=Delta model=3 kv=13.8 kw=11.7488021 pf=0.92 daily="MT-TIPO7_DU" status=variable vmaxpu=1.5 vminpu=0.93
New "Load.MT_6a78be62d1bb0624aaab29c9943a2e16bb40e63796b38e9e1074a2ead8f512ae_M1" bus1="MT435553645626424MT02.1.2.3" phases=3 conn=Delta model=2 kv=13.8 kw=0.4478155 pf=0.92 daily="MT-TIPO6_DU" status=variable vmaxpu=1.5 vminpu=0.93
New "Load.MT_6a78be62d1bb0624aaab29c9943a2e16bb40e63796b38e9e1074a2ead8f512ae_M2" bus1="MT435553645626424MT02.1.2.3" phases=3 conn=Delta model=3 kv=13.8 kw=0.4478155 pf=0.92 daily="MT-TIPO6_DU" status=variable vmaxpu=1.5 vminpu=0.93
New "Load.MT_70089033dd1c6acd570bfc5ae2f40f8385b8f4e6bdf46751ace915a26e15dfc0_M1" bus1="MT4288366145379838MT02.1.2.3" phases=3 conn=Delta model=2 kv=13.8 kw=32.5004600 pf=0.92 daily="MT-TIPO2_DU" status=variable vmaxpu=1.5 vminpu=0.93
New "Load.MT_70089033dd1c6acd570bfc5ae2f40f8385b8f4e6bdf46751ace915a26e15dfc0_M2" bus1="MT4288366145379838MT02.1.2.3" phases=3 conn=Delta model=3 kv=13.8 kw=32.5004600 pf=0.92 daily="MT-TIPO2_DU" status=variable vmaxpu=1.5 vminpu=0.93
New "Load.MT_78db1786af8a6647cf6851978b11c6b7f2eca9a0f41c312356b0ef885ce1b848_M1" bus1="MT4370076745349202MT02.1.2.3" phases=3 conn=Delta model=2 kv=13.8 kw=18.3150159 pf=0.92 daily="MT-TIPO2_DU" status=variable vmaxpu=1.5 vminpu=0.93
New "Load.MT_78db1786af8a6647cf6851978b11c6b7f2eca9a0f41c312356b0ef885ce1b848_M2" bus1="MT4370076745349202MT02.1.2.3" phases=3 conn=Delta model=3 kv=13.8 kw=18.3150159 pf=0.92 daily="MT-TIPO2_DU" status=variable vmaxpu=1.5 vminpu=0.93
New "Load.MT_8b3f87a46212911ebd49cb8bad25a317a3b71380a26fe67dc22e694f4ca9f8e8_M1" bus1="MT4346728345422034MT02.1.2.3" phases=3 conn=Delta model=2 kv=13.8 kw=11.0239015 pf=0.92 daily="MT-TIPO6_DU" status=variable vmaxpu=1.5 vminpu=0.93
New "Load.MT_8b3f87a46212911ebd49cb8bad25a317a3b71380a26fe67dc22e694f4ca9f8e8_M2" bus1="MT4346728345422034MT02.1.2.3" phases=3 conn=Delta model=3 kv=13.8 kw=11.0239015 pf=0.92 daily="MT-TIPO6_DU" status=variable vmaxpu=1.5 vminpu=0.93
New "Load.MT_907519714450a14c4c2c62ba78305a74041af4777a9b396fe92ca9da68f195a3_M1" bus1="MT43782845336903MT02.1.2.3" phases=3 conn=Delta model=2 kv=13.8 kw=0.0088465 pf=0.92 daily="MT-TIPO7_DU" status=variable vmaxpu=1.5 vminpu=0.93
New "Load.MT_907519714450a14c4c2c62ba78305a74041af4777a9b396fe92ca9da68f195a3_M2" bus1="MT43782845336903MT02.1.2.3" phases=3 conn=Delta model=3 kv=13.8 kw=0.0088465 pf=0.92 daily="MT-TIPO7_DU" status=variable vmaxpu=1.5 vminpu=0.93
New "Load.MT_9c206899aa533ca712c64eb9439335f7d4de97a410640cbcd5f9b5dfd704a954_M1" bus1="MT4339843145934423MT02.1.2.3" phases=3 conn=Delta model=2 kv=13.8 kw=44.7962718 pf=0.92 daily="MT-TIPO6_DU" status=variable vmaxpu=1.5 vminpu=0.93
New "Load.MT_9c206899aa533ca712c64eb9439335f7d4de97a410640cbcd5f9b5dfd704a954_M2" bus1="MT4339843145934423MT02.1.2.3" phases=3 conn=Delta model=3 kv=13.8 kw=44.7962718 pf=0.92 daily="MT-TIPO6_DU" status=variable vmaxpu=1.5 vminpu=0.93
New "Load.MT_9d161a9ac1fc3e79413268c0c79eac254472b931aa3dbee3e3d18118e34a3c76_M1" bus1="MT4370001545359283MT02.1.2.3" phases=3 conn=Delta model=2 kv=13.8 kw=11.7026014 pf=0.92 daily="MT-TIPO2_DU" status=variable vmaxpu=1.5 vminpu=0.93
New "Load.MT_9d161a9ac1fc3e79413268c0c79eac254472b931aa3dbee3e3d18118e34a3c76_M2" bus1="MT4370001545359283MT02.1.2.3" phases=3 conn=Delta model=3 kv=13.8 kw=11.7026014 pf=0.92 daily="MT-TIPO2_DU" status=variable vmaxpu=1.5 vminpu=0.93
New "Load.MT_ae38bfb90e151ccec78e8bb6631f177dab4b20de5ffc031da2dd918d38c44a35_M1" bus1="MT4378111845336292MT02.1.2.3" phases=3 conn=Delta model=2 kv=13.8 kw=6.1269096 pf=0.92 daily="MT-TIPO7_DU" status=variable vmaxpu=1.5 vminpu=0.93
New "Load.MT_ae38bfb90e151ccec78e8bb6631f177dab4b20de5ffc031da2dd918d38c44a35_M2" bus1="MT4378111845336292MT02.1.2.3" phases=3 conn=Delta model=3 kv=13.8 kw=6.1269096 pf=0.92 daily="MT-TIPO7_DU" status=variable vmaxpu=1.5 vminpu=0.93
New "Load.MT_c2ba0e974b6da82af167a4e86d5011c315a0cd611ac53d908937df03fb0d7e15_M1" bus1="MT43684745314666MT02.1.2.3" phases=3 conn=Delta model=2 kv=13.8 kw=170.1696548 pf=0.92 daily="MT-TIPO6_DU" status=variable vmaxpu=1.5 vminpu=0.93
New "Load.MT_c2ba0e974b6da82af167a4e86d5011c315a0cd611ac53d908937df03fb0d7e15_M2" bus1="MT43684745314666MT02.1.2.3" phases=3 conn=Delta model=3 kv=13.8 kw=170.1696548 pf=0.92 daily="MT-TIPO6_DU" status=variable vmaxpu=1.5 vminpu=0.93
New "Load.MT_e1ab2c373871d46aaf8ecf2cd7de8becd831d87dfcbd84522f062812b49043d5_M1" bus1="MT4370128745356837MT02.1.2.3" phases=3 conn=Delta model=2 kv=13.8 kw=4.8286013 pf=0.92 daily="MT-TIPO6_DU" status=variable vmaxpu=1.5 vminpu=0.93
New "Load.MT_e1ab2c373871d46aaf8ecf2cd7de8becd831d87dfcbd84522f062812b49043d5_M2" bus1="MT4370128745356837MT02.1.2.3" phases=3 conn=Delta model=3 kv=13.8 kw=4.8286013 pf=0.92 daily="MT-TIPO6_DU" status=variable vmaxpu=1.5 vminpu=0.93
New "Load.MT_f21b7a3ead02f92a8b1c915a48256dbfae6c3832fdca0ae7fbe4ce5fb6d01dcf_M1" bus1="MT4367682545352492MT02.1.2.3" phases=3 conn=Delta model=2 kv=13.8 kw=6.6901514 pf=0.92 daily="MT-TIPO2_DU" status=variable vmaxpu=1.5 vminpu=0.93
New "Load.MT_f21b7a3ead02f92a8b1c915a48256dbfae6c3832fdca0ae7fbe4ce5fb6d01dcf_M2" bus1="MT4367682545352492MT02.1.2.3" phases=3 conn=Delta model=3 kv=13.8 kw=6.6901514 pf=0.92 daily="MT-TIPO2_DU" status=variable vmaxpu=1.5 vminpu=0.93
New "Load.MT_fea7b7d0879bcb951173ff8180b901bae36a64050f2e22574801a941ff5642d4_M1" bus1="MT435107445372875MT02.1.2.3" phases=3 conn=Delta model=2 kv=13.8 kw=23.1871704 pf=0.92 daily="MT-TIPO7_DU" status=variable vmaxpu=1.5 vminpu=0.93
New "Load.MT_fea7b7d0879bcb951173ff8180b901bae36a64050f2e22574801a941ff5642d4_M2" bus1="MT435107445372875MT02.1.2.3" phases=3 conn=Delta model=3 kv=13.8 kw=23.1871704 pf=0.92 daily="MT-TIPO7_DU" status=variable vmaxpu=1.5 vminpu=0.93
